@<TRIPOS>MOLECULE
../XYZ_Files/Methylthiophene_Phi_25_Theta_270_Methylthiophene.xyz
 22 23 0 0 0
SMALL
GASTEIGER

@<TRIPOS>ATOM
      1 C           0.7245   -3.8878    0.0011 C.ar    1  UNL1       -0.0235
      2 C          -0.6611   -3.7015    0.0010 C.ar    1  UNL1       -0.0512
      3 C          -1.0852   -2.3452    0.0004 C.ar    1  UNL1       -0.0352
      4 H          -1.3673   -4.5452    0.0014 H       1  UNL1        0.0626
      5 C           0.0000   -1.4501    0.0000 C.ar    1  UNL1        0.0288
      6 S           1.5275   -2.3213    0.0004 S.2     1  UNL1       -0.0959
      7 C          -2.5315   -1.9344    0.0002 C.3     1  UNL1       -0.0386
      8 H          -3.1963   -2.8198    0.0007 H       1  UNL1        0.0278
      9 H          -2.7873   -1.3262   -0.8924 H       1  UNL1        0.0278
     10 H          -2.7873   -1.3254    0.8923 H       1  UNL1        0.0278
     11 H           1.3079   -4.8153    0.0015 H       1  UNL1        0.0693
     12 C           0.0000    0.0000    0.0000 C.ar    1  UNL1        0.0264
     13 C           0.3542    0.7668    1.1130 C.ar    1  UNL1       -0.0435
     14 C           0.9378    2.0294    0.8206 C.ar    1  UNL1       -0.0428
     15 H           0.1913    0.4145    2.1429 H       1  UNL1        0.0632
     16 C           1.0420    2.2546   -0.5636 C.ar    1  UNL1       -0.0208
     17 S           0.4069    0.8812   -1.4647 S.2     1  UNL1       -0.0959
     18 C           1.3844    2.9958    1.8824 C.3     1  UNL1       -0.0392
     19 H           1.1964    2.5892    2.8950 H       1  UNL1        0.0278
     20 H           0.8496    3.9657    1.8081 H       1  UNL1        0.0278
     21 H           2.4698    3.2168    1.8082 H       1  UNL1        0.0278
     22 H           1.4439    3.1242   -1.0971 H       1  UNL1        0.0696
@<TRIPOS>BOND
     1    17    16   ar
     2    17    12   ar
     3    22    16    1
     4     9     7    1
     5    16    14   ar
     6    12     5    1
     7    12    13   ar
     8     5     6   ar
     9     5     3   ar
    10     7     3    1
    11     7     8    1
    12     7    10    1
    13     6     1   ar
    14     3     2   ar
    15     2     1   ar
    16     2     4    1
    17     1    11    1
    18    14    13   ar
    19    14    18    1
    20    13    15    1
    21    20    18    1
    22    21    18    1
    23    18    19    1
