@<TRIPOS>MOLECULE
../XYZ_Files/Methylthiophene_Phi_5_Theta_150_Methylthiophene.xyz
 22 23 0 0 0
SMALL
GASTEIGER

@<TRIPOS>ATOM
      1 C          -0.3613   -3.8878   -0.6279 C.ar    1  UNL1       -0.0235
      2 C           0.3315   -3.7015    0.5720 C.ar    1  UNL1       -0.0512
      3 C           0.5430   -2.3452    0.9396 C.ar    1  UNL1       -0.0352
      4 H           0.6849   -4.5452    1.1834 H       1  UNL1        0.0626
      5 C          -0.0000   -1.4501   -0.0000 C.ar    1  UNL1        0.0288
      6 S          -0.7634   -2.3213   -1.3231 S.2     1  UNL1       -0.0959
      7 C           1.2659   -1.9344    2.1922 C.3     1  UNL1       -0.0386
      8 H           1.5987   -2.8198    2.7677 H       1  UNL1        0.0278
      9 H           0.6208   -1.3262    2.8601 H       1  UNL1        0.0278
     10 H           2.1664   -1.3254    1.9677 H       1  UNL1        0.0278
     11 H          -0.6526   -4.8153   -1.1334 H       1  UNL1        0.0693
     12 C           0.0000    0.0000    0.0000 C.ar    1  UNL1        0.0264
     13 C           0.0705    0.8417    1.1130 C.ar    1  UNL1       -0.0435
     14 C           0.1871    2.2277    0.8206 C.ar    1  UNL1       -0.0428
     15 H           0.0381    0.4549    2.1429 H       1  UNL1        0.0632
     16 C           0.2081    2.4750   -0.5636 C.ar    1  UNL1       -0.0208
     17 S           0.0809    0.9672   -1.4647 S.2     1  UNL1       -0.0959
     18 C           0.2763    3.2886    1.8824 C.3     1  UNL1       -0.0392
     19 H           0.2387    2.8422    2.8950 H       1  UNL1        0.0278
     20 H          -0.5580    4.0171    1.8081 H       1  UNL1        0.0278
     21 H           1.2206    3.8675    1.8082 H       1  UNL1        0.0278
     22 H           0.2883    3.4297   -1.0971 H       1  UNL1        0.0696
@<TRIPOS>BOND
     1    17    16   ar
     2    17    12   ar
     3     6     1   ar
     4     6     5   ar
     5    11     1    1
     6    22    16    1
     7     1     2   ar
     8    16    14   ar
     9    12     5    1
    10    12    13   ar
    11     5     3   ar
    12     2     3   ar
    13     2     4    1
    14    14    13   ar
    15    14    18    1
    16     3     7    1
    17    13    15    1
    18    20    18    1
    19    21    18    1
    20    18    19    1
    21    10     7    1
    22     7     8    1
    23     7     9    1
