@<TRIPOS>MOLECULE
../XYZ_Files/Methylthiophene_Phi_60_Theta_150_Methylthiophene.xyz
 22 23 0 0 0
SMALL
GASTEIGER

@<TRIPOS>ATOM
      1 C          -0.3613   -3.8878   -0.6279 C.ar    1  UNL1       -0.0238
      2 C           0.3315   -3.7015    0.5720 C.ar    1  UNL1       -0.0515
      3 C           0.5430   -2.3452    0.9396 C.ar    1  UNL1       -0.0385
      4 H           0.6849   -4.5452    1.1834 H       1  UNL1        0.0626
      5 C           0.0000   -1.4501    0.0000 C.ar    1  UNL1        0.0145
      6 S          -0.7634   -2.3213   -1.3231 S.2     1  UNL1       -0.0996
      7 C           1.2659   -1.9344    2.1922 C.3     1  UNL1       -0.0389
      8 H           1.5987   -2.8198    2.7677 H       1  UNL1        0.0278
      9 H           0.6208   -1.3262    2.8601 H       1  UNL1        0.0278
     10 H           2.1664   -1.3254    1.9677 H       1  UNL1        0.0278
     11 H          -0.6526   -4.8153   -1.1334 H       1  UNL1        0.0693
     12 C           0.0000    0.0000    0.0000 C.3     1  UNL1        0.0892
     13 C           0.7299    0.4250    1.1130 C.2     1  UNL1       -0.0613
     14 C           1.9322    1.1245    0.8206 C.2     1  UNL1       -0.0606
     15 H           0.3945    0.2298    2.1429 H       1  UNL1        0.0590
     16 C           2.1468    1.2492   -0.5636 C.3     1  UNL1        0.0428
     17 S           0.8387    0.4885   -1.4647 S.3     1  UNL1       -0.1334
     18 C           2.8524    1.6599    1.8824 C.3     1  UNL1       -0.0426
     19 H           2.4651    1.4347    2.8950 H       1  UNL1        0.0275
     20 H           2.9706    2.7612    1.8081 H       1  UNL1        0.0275
     21 H           3.8682    1.2184    1.8082 H       1  UNL1        0.0275
     22 H           2.9748    1.7310   -1.0971 H       1  UNL1        0.0472
@<TRIPOS>BOND
     1    17    16    1
     2    17    12    1
     3     6     1   ar
     4     6     5   ar
     5    11     1    1
     6    22    16    1
     7     1     2   ar
     8    16    14    1
     9    12     5    1
    10    12    13    1
    11     5     3   ar
    12     2     3   ar
    13     2     4    1
    14    14    13    2
    15    14    18    1
    16     3     7    1
    17    13    15    1
    18    20    18    1
    19    21    18    1
    20    18    19    1
    21    10     7    1
    22     7     8    1
    23     7     9    1
