@<TRIPOS>MOLECULE
../XYZ_Files/Methylthiophene_Phi_5_Theta_90_Methylthiophene.xyz
 22 23 0 0 0
SMALL
GASTEIGER

@<TRIPOS>ATOM
      1 C          -0.7245   -3.8878   -0.0011 C.ar    1  UNL1       -0.0235
      2 C           0.6611   -3.7015   -0.0010 C.ar    1  UNL1       -0.0512
      3 C           1.0852   -2.3452   -0.0004 C.ar    1  UNL1       -0.0352
      4 H           1.3673   -4.5452   -0.0014 H       1  UNL1        0.0626
      5 C          -0.0000   -1.4501   -0.0000 C.ar    1  UNL1        0.0288
      6 S          -1.5275   -2.3213   -0.0004 S.2     1  UNL1       -0.0959
      7 C           2.5315   -1.9344   -0.0002 C.3     1  UNL1       -0.0386
      8 H           3.1963   -2.8198   -0.0007 H       1  UNL1        0.0278
      9 H           2.7873   -1.3262    0.8924 H       1  UNL1        0.0278
     10 H           2.7873   -1.3254   -0.8923 H       1  UNL1        0.0278
     11 H          -1.3079   -4.8153   -0.0015 H       1  UNL1        0.0693
     12 C           0.0000    0.0000    0.0000 C.ar    1  UNL1        0.0264
     13 C           0.0705    0.8417    1.1130 C.ar    1  UNL1       -0.0435
     14 C           0.1871    2.2277    0.8206 C.ar    1  UNL1       -0.0428
     15 H           0.0381    0.4549    2.1429 H       1  UNL1        0.0632
     16 C           0.2081    2.4750   -0.5636 C.ar    1  UNL1       -0.0208
     17 S           0.0809    0.9672   -1.4647 S.2     1  UNL1       -0.0959
     18 C           0.2763    3.2886    1.8824 C.3     1  UNL1       -0.0392
     19 H           0.2387    2.8422    2.8950 H       1  UNL1        0.0278
     20 H          -0.5580    4.0171    1.8081 H       1  UNL1        0.0278
     21 H           1.2206    3.8675    1.8082 H       1  UNL1        0.0278
     22 H           0.2883    3.4297   -1.0971 H       1  UNL1        0.0696
@<TRIPOS>BOND
     1    17    16   ar
     2    17    12   ar
     3    22    16    1
     4    10     7    1
     5    16    14   ar
     6    11     1    1
     7     4     2    1
     8     1     2   ar
     9     1     6   ar
    10     2     3   ar
    11     8     7    1
    12     3     7    1
    13     3     5   ar
    14     6     5   ar
    15     7     9    1
    16    12     5    1
    17    12    13   ar
    18    14    13   ar
    19    14    18    1
    20    13    15    1
    21    20    18    1
    22    21    18    1
    23    18    19    1
