@<TRIPOS>MOLECULE
../XYZ_Files/Methylthiophene_Phi_0_Theta_10_Methylthiophene.xyz
 22 23 0 0 0
SMALL
GASTEIGER

@<TRIPOS>ATOM
      1 C          -0.1391   -3.8720    0.7925 C.ar    1  UNL1       -0.0235
      2 C           0.1021   -3.7143   -0.5756 C.ar    1  UNL1       -0.0512
      3 C           0.1806   -2.3671   -1.0207 C.ar    1  UNL1       -0.0352
      4 H           0.2217   -4.5725   -1.2537 H       1  UNL1        0.0626
      5 C          -0.0046   -1.4498    0.0296 C.ar    1  UNL1        0.0288
      6 S          -0.2729   -2.2893    1.5513 S.2     1  UNL1       -0.0959
      7 C           0.4333   -1.9863   -2.4530 C.3     1  UNL1       -0.0386
      8 H           0.5455   -2.8852   -3.0896 H       1  UNL1        0.0278
      9 H           1.3587   -1.3831   -2.5623 H       1  UNL1        0.0278
     10 H          -0.3990   -1.3830   -2.8723 H       1  UNL1        0.0278
     11 H          -0.2438   -4.7873    1.3858 H       1  UNL1        0.0693
     12 C           0.0000    0.0000    0.0000 C.ar    1  UNL1        0.0264
     13 C          -0.0004    0.8672    1.0955 C.ar    1  UNL1       -0.0435
     14 C          -0.0007    2.2519    0.7748 C.ar    1  UNL1       -0.0428
     15 H          -0.0003    0.5002    2.1331 H       1  UNL1        0.0632
     16 C          -0.0006    2.4717   -0.6142 C.ar    1  UNL1       -0.0208
     17 S          -0.0006    0.9405   -1.4843 S.2     1  UNL1       -0.0959
     18 C          -0.0010    3.3379    1.8146 C.3     1  UNL1       -0.0392
     19 H          -0.0009    2.9107    2.8361 H       1  UNL1        0.0278
     20 H          -0.8935    3.9921    1.7270 H       1  UNL1        0.0278
     21 H           0.8914    3.9924    1.7271 H       1  UNL1        0.0278
     22 H          -0.0009    3.4187   -1.1671 H       1  UNL1        0.0696
@<TRIPOS>BOND
     1     8     7    1
     2    10     7    1
     3     9     7    1
     4     7     3    1
     5    17    16   ar
     6    17    12   ar
     7     4     2    1
     8    22    16    1
     9     3     2   ar
    10     3     5   ar
    11    16    14   ar
    12     2     1   ar
    13    12     5    1
    14    12    13   ar
    15     5     6   ar
    16    14    13   ar
    17    14    18    1
    18     1    11    1
    19     1     6   ar
    20    13    15    1
    21    20    18    1
    22    21    18    1
    23    18    19    1
