@<TRIPOS>MOLECULE
../XYZ_Files/Methylthiophene_Phi_50_Theta_330_Methylthiophene.xyz
 22 23 0 0 0
SMALL
GASTEIGER

@<TRIPOS>ATOM
      1 C           0.3613   -3.8878    0.6279 C.ar    1  UNL1       -0.0238
      2 C          -0.3315   -3.7015   -0.5720 C.ar    1  UNL1       -0.0515
      3 C          -0.5430   -2.3452   -0.9396 C.ar    1  UNL1       -0.0385
      4 H          -0.6849   -4.5452   -1.1834 H       1  UNL1        0.0626
      5 C           0.0000   -1.4501    0.0000 C.ar    1  UNL1        0.0145
      6 S           0.7634   -2.3213    1.3231 S.2     1  UNL1       -0.0996
      7 C          -1.2659   -1.9344   -2.1922 C.3     1  UNL1       -0.0389
      8 H          -1.5987   -2.8198   -2.7677 H       1  UNL1        0.0278
      9 H          -0.6208   -1.3262   -2.8601 H       1  UNL1        0.0278
     10 H          -2.1664   -1.3254   -1.9677 H       1  UNL1        0.0278
     11 H           0.6526   -4.8153    1.1334 H       1  UNL1        0.0693
     12 C           0.0000    0.0000    0.0000 C.3     1  UNL1        0.0892
     13 C           0.6450    0.5453    1.1130 C.2     1  UNL1       -0.0613
     14 C           1.7076    1.4430    0.8206 C.2     1  UNL1       -0.0606
     15 H           0.3486    0.2948    2.1429 H       1  UNL1        0.0590
     16 C           1.8972    1.6030   -0.5636 C.3     1  UNL1        0.0428
     17 S           0.7412    0.6267   -1.4647 S.3     1  UNL1       -0.1334
     18 C           2.5208    2.1300    1.8824 C.3     1  UNL1       -0.0426
     19 H           2.1786    1.8410    2.8950 H       1  UNL1        0.0275
     20 H           2.4460    3.2351    1.8081 H       1  UNL1        0.0275
     21 H           3.5978    1.8716    1.8082 H       1  UNL1        0.0275
     22 H           2.6290    2.2213   -1.0971 H       1  UNL1        0.0472
@<TRIPOS>BOND
     1     9     7    1
     2     8     7    1
     3     7    10    1
     4     7     3    1
     5    17    16    1
     6    17    12    1
     7     4     2    1
     8    22    16    1
     9     3     2   ar
    10     3     5   ar
    11     2     1   ar
    12    16    14    1
    13    12     5    1
    14    12    13    1
    15     5     6   ar
    16     1    11    1
    17     1     6   ar
    18    14    13    2
    19    14    18    1
    20    13    15    1
    21    20    18    1
    22    21    18    1
    23    18    19    1
