@<TRIPOS>MOLECULE
../XYZ_Files/Methylthiophene_Phi_25_Theta_170_Methylthiophene.xyz
 22 23 0 0 0
SMALL
GASTEIGER

@<TRIPOS>ATOM
      1 C          -0.1247   -3.8878   -0.7136 C.ar    1  UNL1       -0.0235
      2 C           0.1158   -3.7015    0.6509 C.ar    1  UNL1       -0.0512
      3 C           0.1888   -2.3452    1.0686 C.ar    1  UNL1       -0.0352
      4 H           0.2388   -4.5452    1.3463 H       1  UNL1        0.0626
      5 C           0.0000   -1.4501    0.0000 C.ar    1  UNL1        0.0288
      6 S          -0.2649   -2.3213   -1.5044 S.2     1  UNL1       -0.0959
      7 C           0.4398   -1.9344    2.4930 C.3     1  UNL1       -0.0386
      8 H           0.5557   -2.8198    3.1476 H       1  UNL1        0.0278
      9 H          -0.3949   -1.3262    2.8999 H       1  UNL1        0.0278
     10 H           1.3628   -1.3254    2.5900 H       1  UNL1        0.0278
     11 H          -0.2256   -4.8153   -1.2883 H       1  UNL1        0.0693
     12 C           0.0000    0.0000    0.0000 C.ar    1  UNL1        0.0264
     13 C           0.3542    0.7668    1.1130 C.ar    1  UNL1       -0.0435
     14 C           0.9378    2.0294    0.8206 C.ar    1  UNL1       -0.0428
     15 H           0.1913    0.4145    2.1429 H       1  UNL1        0.0632
     16 C           1.0420    2.2546   -0.5636 C.ar    1  UNL1       -0.0208
     17 S           0.4069    0.8812   -1.4647 S.2     1  UNL1       -0.0959
     18 C           1.3844    2.9958    1.8824 C.3     1  UNL1       -0.0392
     19 H           1.1964    2.5892    2.8950 H       1  UNL1        0.0278
     20 H           0.8496    3.9657    1.8081 H       1  UNL1        0.0278
     21 H           2.4698    3.2168    1.8082 H       1  UNL1        0.0278
     22 H           1.4439    3.1242   -1.0971 H       1  UNL1        0.0696
@<TRIPOS>BOND
     1     6     1   ar
     2     6     5   ar
     3    17    16   ar
     4    17    12   ar
     5    11     1    1
     6    22    16    1
     7     1     2   ar
     8    16    14   ar
     9    12     5    1
    10    12    13   ar
    11     5     3   ar
    12     2     3   ar
    13     2     4    1
    14    14    13   ar
    15    14    18    1
    16     3     7    1
    17    13    15    1
    18    20    18    1
    19    21    18    1
    20    18    19    1
    21     7    10    1
    22     7     9    1
    23     7     8    1
