@<TRIPOS>MOLECULE
../XYZ_Files/Methylthiophene_Phi_20_Theta_280_Methylthiophene.xyz
 22 23 0 0 0
SMALL
GASTEIGER

@<TRIPOS>ATOM
      1 C           0.7133   -3.8878    0.1269 C.ar    1  UNL1       -0.0235
      2 C          -0.6513   -3.7015   -0.1138 C.ar    1  UNL1       -0.0512
      3 C          -1.0688   -2.3452   -0.1880 C.ar    1  UNL1       -0.0352
      4 H          -1.3468   -4.5452   -0.2360 H       1  UNL1        0.0626
      5 C           0.0000   -1.4501    0.0000 C.ar    1  UNL1        0.0288
      6 S           1.5042   -2.3213    0.2656 S.2     1  UNL1       -0.0959
      7 C          -2.4931   -1.9344   -0.4394 C.3     1  UNL1       -0.0386
      8 H          -3.1478   -2.8198   -0.5544 H       1  UNL1        0.0278
      9 H          -2.5900   -1.3262   -1.3629 H       1  UNL1        0.0278
     10 H          -2.8999   -1.3254    0.3948 H       1  UNL1        0.0278
     11 H           1.2878   -4.8153    0.2286 H       1  UNL1        0.0693
     12 C           0.0000    0.0000    0.0000 C.ar    1  UNL1        0.0264
     13 C           0.2860    0.7947    1.1130 C.ar    1  UNL1       -0.0435
     14 C           0.7573    2.1034    0.8206 C.ar    1  UNL1       -0.0428
     15 H           0.1545    0.4296    2.1429 H       1  UNL1        0.0632
     16 C           0.8416    2.3368   -0.5636 C.ar    1  UNL1       -0.0208
     17 S           0.3285    0.9133   -1.4647 S.2     1  UNL1       -0.0959
     18 C           1.1181    3.1050    1.8824 C.3     1  UNL1       -0.0392
     19 H           0.9662    2.6836    2.8950 H       1  UNL1        0.0278
     20 H           0.5008    4.0247    1.8081 H       1  UNL1        0.0278
     21 H           2.1800    3.4198    1.8082 H       1  UNL1        0.0278
     22 H           1.1661    3.2382   -1.0971 H       1  UNL1        0.0696
@<TRIPOS>BOND
     1    17    16   ar
     2    17    12   ar
     3     9     7    1
     4    22    16    1
     5    16    14   ar
     6     8     7    1
     7     7     3    1
     8     7    10    1
     9     4     2    1
    10     3     2   ar
    11     3     5   ar
    12     2     1   ar
    13    12     5    1
    14    12    13   ar
    15     5     6   ar
    16     1    11    1
    17     1     6   ar
    18    14    13   ar
    19    14    18    1
    20    13    15    1
    21    20    18    1
    22    21    18    1
    23    18    19    1
