@<TRIPOS>MOLECULE
../XYZ_Files/Methylthiophene_Phi_60_Theta_270_Methylthiophene.xyz
 22 23 0 0 0
SMALL
GASTEIGER

@<TRIPOS>ATOM
      1 C           0.7245   -3.8878    0.0011 C.ar    1  UNL1       -0.0238
      2 C          -0.6611   -3.7015    0.0010 C.ar    1  UNL1       -0.0515
      3 C          -1.0852   -2.3452    0.0004 C.ar    1  UNL1       -0.0385
      4 H          -1.3673   -4.5452    0.0014 H       1  UNL1        0.0626
      5 C           0.0000   -1.4501    0.0000 C.ar    1  UNL1        0.0145
      6 S           1.5275   -2.3213    0.0004 S.2     1  UNL1       -0.0996
      7 C          -2.5315   -1.9344    0.0002 C.3     1  UNL1       -0.0389
      8 H          -3.1963   -2.8198    0.0007 H       1  UNL1        0.0278
      9 H          -2.7873   -1.3262   -0.8924 H       1  UNL1        0.0278
     10 H          -2.7873   -1.3254    0.8923 H       1  UNL1        0.0278
     11 H           1.3079   -4.8153    0.0015 H       1  UNL1        0.0693
     12 C           0.0000    0.0000    0.0000 C.3     1  UNL1        0.0892
     13 C           0.7299    0.4250    1.1130 C.2     1  UNL1       -0.0613
     14 C           1.9322    1.1245    0.8206 C.2     1  UNL1       -0.0606
     15 H           0.3945    0.2298    2.1429 H       1  UNL1        0.0590
     16 C           2.1468    1.2492   -0.5636 C.3     1  UNL1        0.0428
     17 S           0.8387    0.4885   -1.4647 S.3     1  UNL1       -0.1334
     18 C           2.8524    1.6599    1.8824 C.3     1  UNL1       -0.0426
     19 H           2.4651    1.4347    2.8950 H       1  UNL1        0.0275
     20 H           2.9706    2.7612    1.8081 H       1  UNL1        0.0275
     21 H           3.8682    1.2184    1.8082 H       1  UNL1        0.0275
     22 H           2.9748    1.7310   -1.0971 H       1  UNL1        0.0472
@<TRIPOS>BOND
     1    17    16    1
     2    17    12    1
     3    22    16    1
     4     9     7    1
     5    16    14    1
     6    12     5    1
     7    12    13    1
     8     5     6   ar
     9     5     3   ar
    10     7     3    1
    11     7     8    1
    12     7    10    1
    13     6     1   ar
    14     3     2   ar
    15     2     1   ar
    16     2     4    1
    17     1    11    1
    18    14    13    2
    19    14    18    1
    20    13    15    1
    21    20    18    1
    22    21    18    1
    23    18    19    1
