@<TRIPOS>MOLECULE
../XYZ_Files/Methylthiophene_Phi_50_Theta_190_Methylthiophene.xyz
 22 23 0 0 0
SMALL
GASTEIGER

@<TRIPOS>ATOM
      1 C           0.1269   -3.8878   -0.7133 C.ar    1  UNL1       -0.0238
      2 C          -0.1138   -3.7015    0.6513 C.ar    1  UNL1       -0.0515
      3 C          -0.1880   -2.3452    1.0688 C.ar    1  UNL1       -0.0385
      4 H          -0.2360   -4.5452    1.3468 H       1  UNL1        0.0626
      5 C           0.0000   -1.4501    0.0000 C.ar    1  UNL1        0.0145
      6 S           0.2656   -2.3213   -1.5042 S.2     1  UNL1       -0.0996
      7 C          -0.4394   -1.9344    2.4931 C.3     1  UNL1       -0.0389
      8 H          -0.5544   -2.8198    3.1478 H       1  UNL1        0.0278
      9 H          -1.3629   -1.3262    2.5900 H       1  UNL1        0.0278
     10 H           0.3948   -1.3254    2.8999 H       1  UNL1        0.0278
     11 H           0.2286   -4.8153   -1.2878 H       1  UNL1        0.0693
     12 C           0.0000    0.0000    0.0000 C.3     1  UNL1        0.0892
     13 C           0.6450    0.5453    1.1130 C.2     1  UNL1       -0.0613
     14 C           1.7076    1.4430    0.8206 C.2     1  UNL1       -0.0606
     15 H           0.3486    0.2948    2.1429 H       1  UNL1        0.0590
     16 C           1.8972    1.6030   -0.5636 C.3     1  UNL1        0.0428
     17 S           0.7412    0.6267   -1.4647 S.3     1  UNL1       -0.1334
     18 C           2.5208    2.1300    1.8824 C.3     1  UNL1       -0.0426
     19 H           2.1786    1.8410    2.8950 H       1  UNL1        0.0275
     20 H           2.4460    3.2351    1.8081 H       1  UNL1        0.0275
     21 H           3.5978    1.8716    1.8082 H       1  UNL1        0.0275
     22 H           2.6290    2.2213   -1.0971 H       1  UNL1        0.0472
@<TRIPOS>BOND
     1     6     1   ar
     2     6     5   ar
     3    17    16    1
     4    17    12    1
     5    11     1    1
     6    22    16    1
     7     1     2   ar
     8    16    14    1
     9    12     5    1
    10    12    13    1
    11     5     3   ar
    12     2     3   ar
    13     2     4    1
    14    14    13    2
    15    14    18    1
    16     3     7    1
    17    13    15    1
    18    20    18    1
    19    21    18    1
    20    18    19    1
    21     7     9    1
    22     7    10    1
    23     7     8    1
