@<TRIPOS>MOLECULE
../XYZ_Files/Methylthiophene_Phi_40_Theta_230_Methylthiophene.xyz
 22 23 0 0 0
SMALL
GASTEIGER

@<TRIPOS>ATOM
      1 C           0.5557   -3.8878   -0.4648 C.ar    1  UNL1       -0.0238
      2 C          -0.5058   -3.7015    0.4258 C.ar    1  UNL1       -0.0515
      3 C          -0.8311   -2.3452    0.6979 C.ar    1  UNL1       -0.0385
      4 H          -1.0465   -4.5452    0.8800 H       1  UNL1        0.0626
      5 C          -0.0000   -1.4501   -0.0000 C.ar    1  UNL1        0.0145
      6 S           1.1704   -2.3213   -0.9816 S.2     1  UNL1       -0.0996
      7 C          -1.9391   -1.9344    1.6274 C.3     1  UNL1       -0.0389
      8 H          -2.4481   -2.8198    2.0550 H       1  UNL1        0.0278
      9 H          -2.7089   -1.3262    1.1080 H       1  UNL1        0.0278
     10 H          -1.5616   -1.3254    2.4752 H       1  UNL1        0.0278
     11 H           1.0029   -4.8153   -0.8395 H       1  UNL1        0.0693
     12 C           0.0000    0.0000    0.0000 C.3     1  UNL1        0.0892
     13 C           0.5405    0.6490    1.1130 C.2     1  UNL1       -0.0613
     14 C           1.4310    1.7175    0.8206 C.2     1  UNL1       -0.0606
     15 H           0.2921    0.3508    2.1429 H       1  UNL1        0.0590
     16 C           1.5901    1.9081   -0.5636 C.3     1  UNL1        0.0428
     17 S           0.6211    0.7459   -1.4647 S.3     1  UNL1       -0.1334
     18 C           2.1126    2.5354    1.8824 C.3     1  UNL1       -0.0426
     19 H           1.8258    2.1913    2.8950 H       1  UNL1        0.0275
     20 H           1.8471    3.6107    1.8081 H       1  UNL1        0.0275
     21 H           3.2182    2.4679    1.8082 H       1  UNL1        0.0275
     22 H           2.2033    2.6441   -1.0971 H       1  UNL1        0.0472
@<TRIPOS>BOND
     1    17    16    1
     2    17    12    1
     3    22    16    1
     4     6     1   ar
     5     6     5   ar
     6    11     1    1
     7    16    14    1
     8     1     2   ar
     9    12     5    1
    10    12    13    1
    11     5     3   ar
    12     2     3   ar
    13     2     4    1
    14     3     7    1
    15    14    13    2
    16    14    18    1
    17     9     7    1
    18    13    15    1
    19     7     8    1
    20     7    10    1
    21    20    18    1
    22    21    18    1
    23    18    19    1
