@<TRIPOS>MOLECULE
../XYZ_Files/Methylthiophene_Phi_40_Theta_0_Methylthiophene.xyz
 22 23 0 0 0
SMALL
GASTEIGER

@<TRIPOS>ATOM
      1 C           0.6740   -3.8289    0.7245 C.ar    1  UNL1       -0.0238
      2 C           0.6417   -3.6454   -0.6611 C.ar    1  UNL1       -0.0515
      3 C           0.4068   -2.3096   -1.0852 C.ar    1  UNL1       -0.0385
      4 H           0.7879   -4.4764   -1.3673 H       1  UNL1        0.0626
      5 C           0.2518   -1.4281    0.0000 C.ar    1  UNL1        0.0145
      6 S           0.4027   -2.2861    1.5275 S.2     1  UNL1       -0.0996
      7 C           0.3357   -1.9051   -2.5315 C.3     1  UNL1       -0.0389
      8 H           0.4890   -2.7771   -3.1963 H       1  UNL1        0.0278
      9 H           1.1092   -1.1511   -2.7873 H       1  UNL1        0.0278
     10 H          -0.6486   -1.4602   -2.7873 H       1  UNL1        0.0278
     11 H           0.8347   -4.7424    1.3079 H       1  UNL1        0.0693
     12 C           0.0000    0.0000    0.0000 C.3     1  UNL1        0.0892
     13 C           0.4196    0.7330    1.1130 C.2     1  UNL1       -0.0613
     14 C           1.1111    1.9400    0.8206 C.2     1  UNL1       -0.0606
     15 H           0.2267    0.3962    2.1429 H       1  UNL1        0.0590
     16 C           1.2346    2.1552   -0.5636 C.3     1  UNL1        0.0428
     17 S           0.4821    0.8424   -1.4647 S.3     1  UNL1       -0.1334
     18 C           1.6403    2.8637    1.8824 C.3     1  UNL1       -0.0426
     19 H           1.4175    2.4751    2.8950 H       1  UNL1        0.0275
     20 H           1.1920    3.8766    1.8081 H       1  UNL1        0.0275
     21 H           2.7407    2.9893    1.8082 H       1  UNL1        0.0275
     22 H           1.7107    2.9865   -1.0971 H       1  UNL1        0.0472
@<TRIPOS>BOND
     1     8     7    1
     2     9     7    1
     3    10     7    1
     4     7     3    1
     5    17    16    1
     6    17    12    1
     7     4     2    1
     8    22    16    1
     9     3     2   ar
    10     3     5   ar
    11     2     1   ar
    12    16    14    1
    13    12     5    1
    14    12    13    1
    15     5     6   ar
    16     1    11    1
    17     1     6   ar
    18    14    13    2
    19    14    18    1
    20    13    15    1
    21    20    18    1
    22    21    18    1
    23    18    19    1
