@<TRIPOS>MOLECULE
../XYZ_Files/Methylthiophene_Phi_30_Theta_20_Methylthiophene.xyz
 22 23 0 0 0
SMALL
GASTEIGER

@<TRIPOS>ATOM
      1 C          -0.2488   -3.8878    0.6804 C.ar    1  UNL1       -0.0235
      2 C           0.2251   -3.7015   -0.6216 C.ar    1  UNL1       -0.0512
      3 C           0.3708   -2.3452   -1.0199 C.ar    1  UNL1       -0.0352
      4 H           0.4663   -4.5452   -1.2853 H       1  UNL1        0.0626
      5 C           0.0000   -1.4501    0.0000 C.ar    1  UNL1        0.0288
      6 S          -0.5228   -2.3213    1.4353 S.2     1  UNL1       -0.0959
      7 C           0.8656   -1.9344   -2.3789 C.3     1  UNL1       -0.0386
      8 H           1.0926   -2.8198   -3.0037 H       1  UNL1        0.0278
      9 H           1.7919   -1.3262   -2.3140 H       1  UNL1        0.0278
     10 H           0.1148   -1.3254   -2.9244 H       1  UNL1        0.0278
     11 H          -0.4487   -4.8153    1.2285 H       1  UNL1        0.0693
     12 C           0.0000    0.0000    0.0000 C.ar    1  UNL1        0.0264
     13 C           0.4196    0.7330    1.1130 C.ar    1  UNL1       -0.0435
     14 C           1.1111    1.9400    0.8206 C.ar    1  UNL1       -0.0428
     15 H           0.2267    0.3962    2.1429 H       1  UNL1        0.0632
     16 C           1.2346    2.1552   -0.5636 C.ar    1  UNL1       -0.0208
     17 S           0.4821    0.8424   -1.4647 S.2     1  UNL1       -0.0959
     18 C           1.6403    2.8637    1.8824 C.3     1  UNL1       -0.0392
     19 H           1.4175    2.4751    2.8950 H       1  UNL1        0.0278
     20 H           1.1920    3.8766    1.8081 H       1  UNL1        0.0278
     21 H           2.7407    2.9893    1.8082 H       1  UNL1        0.0278
     22 H           1.7107    2.9865   -1.0971 H       1  UNL1        0.0696
@<TRIPOS>BOND
     1     8     7    1
     2    10     7    1
     3     7     9    1
     4     7     3    1
     5    17    16   ar
     6    17    12   ar
     7     4     2    1
     8    22    16    1
     9     3     2   ar
    10     3     5   ar
    11     2     1   ar
    12    16    14   ar
    13    12     5    1
    14    12    13   ar
    15     5     6   ar
    16     1    11    1
    17     1     6   ar
    18    14    13   ar
    19    14    18    1
    20    13    15    1
    21    20    18    1
    22    21    18    1
    23    18    19    1
