@<TRIPOS>MOLECULE
../XYZ_Files/Methylthiophene_Phi_10_Theta_40_Methylthiophene.xyz
 22 23 0 0 0
SMALL
GASTEIGER

@<TRIPOS>ATOM
      1 C          -0.4665   -3.8878    0.5543 C.ar    1  UNL1       -0.0235
      2 C           0.4242   -3.7015   -0.5071 C.ar    1  UNL1       -0.0512
      3 C           0.6972   -2.3452   -0.8316 C.ar    1  UNL1       -0.0352
      4 H           0.8778   -4.5452   -1.0483 H       1  UNL1        0.0626
      5 C           0.0000   -1.4501    0.0000 C.ar    1  UNL1        0.0288
      6 S          -0.9821   -2.3213    1.1699 S.2     1  UNL1       -0.0959
      7 C           1.6270   -1.9344   -1.9394 C.3     1  UNL1       -0.0386
      8 H           2.0540   -2.8198   -2.4489 H       1  UNL1        0.0278
      9 H           2.4753   -1.3262   -1.5615 H       1  UNL1        0.0278
     10 H           1.1081   -1.3254   -2.7088 H       1  UNL1        0.0278
     11 H          -0.8419   -4.8153    1.0009 H       1  UNL1        0.0693
     12 C           0.0000    0.0000    0.0000 C.ar    1  UNL1        0.0264
     13 C           0.1436    0.8323    1.1130 C.ar    1  UNL1       -0.0435
     14 C           0.3805    2.2030    0.8206 C.ar    1  UNL1       -0.0428
     15 H           0.0776    0.4499    2.1429 H       1  UNL1        0.0632
     16 C           0.4230    2.4475   -0.5636 C.ar    1  UNL1       -0.0208
     17 S           0.1649    0.9565   -1.4647 S.2     1  UNL1       -0.0959
     18 C           0.5619    3.2520    1.8824 C.3     1  UNL1       -0.0392
     19 H           0.4855    2.8106    2.8950 H       1  UNL1        0.0278
     20 H          -0.2057    4.0505    1.8081 H       1  UNL1        0.0278
     21 H           1.5530    3.7464    1.8082 H       1  UNL1        0.0278
     22 H           0.5861    3.3915   -1.0971 H       1  UNL1        0.0696
@<TRIPOS>BOND
     1    10     7    1
     2     8     7    1
     3     7     9    1
     4     7     3    1
     5    17    16   ar
     6    17    12   ar
     7    22    16    1
     8     4     2    1
     9     3     2   ar
    10     3     5   ar
    11    16    14   ar
    12     2     1   ar
    13    12     5    1
    14    12    13   ar
    15     5     6   ar
    16     1    11    1
    17     1     6   ar
    18    14    13   ar
    19    14    18    1
    20    13    15    1
    21    20    18    1
    22    21    18    1
    23    18    19    1
