@<TRIPOS>MOLECULE
../XYZ_Files/Methylthiophene_Phi_30_Theta_230_Methylthiophene.xyz
 22 23 0 0 0
SMALL
GASTEIGER

@<TRIPOS>ATOM
      1 C           0.5557   -3.8878   -0.4648 C.ar    1  UNL1       -0.0235
      2 C          -0.5058   -3.7015    0.4258 C.ar    1  UNL1       -0.0512
      3 C          -0.8311   -2.3452    0.6979 C.ar    1  UNL1       -0.0352
      4 H          -1.0465   -4.5452    0.8800 H       1  UNL1        0.0626
      5 C           0.0000   -1.4501    0.0000 C.ar    1  UNL1        0.0288
      6 S           1.1704   -2.3213   -0.9816 S.2     1  UNL1       -0.0959
      7 C          -1.9391   -1.9344    1.6274 C.3     1  UNL1       -0.0386
      8 H          -2.4481   -2.8198    2.0550 H       1  UNL1        0.0278
      9 H          -2.7089   -1.3262    1.1080 H       1  UNL1        0.0278
     10 H          -1.5616   -1.3254    2.4752 H       1  UNL1        0.0278
     11 H           1.0029   -4.8153   -0.8395 H       1  UNL1        0.0693
     12 C           0.0000    0.0000    0.0000 C.ar    1  UNL1        0.0264
     13 C           0.4196    0.7330    1.1130 C.ar    1  UNL1       -0.0435
     14 C           1.1111    1.9400    0.8206 C.ar    1  UNL1       -0.0428
     15 H           0.2267    0.3962    2.1429 H       1  UNL1        0.0632
     16 C           1.2346    2.1552   -0.5636 C.ar    1  UNL1       -0.0208
     17 S           0.4821    0.8424   -1.4647 S.2     1  UNL1       -0.0959
     18 C           1.6403    2.8637    1.8824 C.3     1  UNL1       -0.0392
     19 H           1.4175    2.4751    2.8950 H       1  UNL1        0.0278
     20 H           1.1920    3.8766    1.8081 H       1  UNL1        0.0278
     21 H           2.7407    2.9893    1.8082 H       1  UNL1        0.0278
     22 H           1.7107    2.9865   -1.0971 H       1  UNL1        0.0696
@<TRIPOS>BOND
     1    17    16   ar
     2    17    12   ar
     3    22    16    1
     4     6     1   ar
     5     6     5   ar
     6    11     1    1
     7    16    14   ar
     8     1     2   ar
     9    12     5    1
    10    12    13   ar
    11     5     3   ar
    12     2     3   ar
    13     2     4    1
    14     3     7    1
    15    14    13   ar
    16    14    18    1
    17     9     7    1
    18    13    15    1
    19     7     8    1
    20     7    10    1
    21    20    18    1
    22    21    18    1
    23    18    19    1
