@<TRIPOS>MOLECULE
../XYZ_Files/Methylthiophene_Phi_60_Theta_70_Methylthiophene.xyz
 22 23 0 0 0
SMALL
GASTEIGER

@<TRIPOS>ATOM
      1 C          -0.6811   -3.8878    0.2468 C.ar    1  UNL1       -0.0238
      2 C           0.6209   -3.7015   -0.2271 C.ar    1  UNL1       -0.0515
      3 C           1.0196   -2.3452   -0.3715 C.ar    1  UNL1       -0.0385
      4 H           1.2844   -4.5452   -0.4690 H       1  UNL1        0.0626
      5 C           0.0000   -1.4501    0.0000 C.ar    1  UNL1        0.0145
      6 S          -1.4355   -2.3213    0.5221 S.2     1  UNL1       -0.0996
      7 C           2.3787   -1.9344   -0.8660 C.3     1  UNL1       -0.0389
      8 H           3.0033   -2.8198   -1.0938 H       1  UNL1        0.0278
      9 H           2.9244   -1.3262   -0.1147 H       1  UNL1        0.0278
     10 H           2.3140   -1.3254   -1.7918 H       1  UNL1        0.0278
     11 H          -1.2295   -4.8153    0.4459 H       1  UNL1        0.0693
     12 C           0.0000    0.0000    0.0000 C.3     1  UNL1        0.0892
     13 C           0.7299    0.4250    1.1130 C.2     1  UNL1       -0.0613
     14 C           1.9322    1.1245    0.8206 C.2     1  UNL1       -0.0606
     15 H           0.3945    0.2298    2.1429 H       1  UNL1        0.0590
     16 C           2.1468    1.2492   -0.5636 C.3     1  UNL1        0.0428
     17 S           0.8387    0.4885   -1.4647 S.3     1  UNL1       -0.1334
     18 C           2.8524    1.6599    1.8824 C.3     1  UNL1       -0.0426
     19 H           2.4651    1.4347    2.8950 H       1  UNL1        0.0275
     20 H           2.9706    2.7612    1.8081 H       1  UNL1        0.0275
     21 H           3.8682    1.2184    1.8082 H       1  UNL1        0.0275
     22 H           2.9748    1.7310   -1.0971 H       1  UNL1        0.0472
@<TRIPOS>BOND
     1    10     7    1
     2    17    16    1
     3    17    12    1
     4    22    16    1
     5     8     7    1
     6     7     3    1
     7     7     9    1
     8    16    14    1
     9     4     2    1
    10     3     2   ar
    11     3     5   ar
    12     2     1   ar
    13    12     5    1
    14    12    13    1
    15     5     6   ar
    16     1    11    1
    17     1     6   ar
    18    14    13    2
    19    14    18    1
    20    13    15    1
    21    20    18    1
    22    21    18    1
    23    18    19    1
