@<TRIPOS>MOLECULE
../XYZ_Files/Methylthiophene_Phi_15_Theta_30_Methylthiophene.xyz
 22 23 0 0 0
SMALL
GASTEIGER

@<TRIPOS>ATOM
      1 C          -0.3632   -3.8878    0.6269 C.ar    1  UNL1       -0.0235
      2 C           0.3297   -3.7015   -0.5731 C.ar    1  UNL1       -0.0512
      3 C           0.5423   -2.3452   -0.9400 C.ar    1  UNL1       -0.0352
      4 H           0.6824   -4.5452   -1.1848 H       1  UNL1        0.0626
      5 C          -0.0000   -1.4501   -0.0000 C.ar    1  UNL1        0.0288
      6 S          -0.7641   -2.3213    1.3227 S.2     1  UNL1       -0.0959
      7 C           1.2655   -1.9344   -2.1924 C.3     1  UNL1       -0.0386
      8 H           1.5976   -2.8198   -2.7684 H       1  UNL1        0.0278
      9 H           2.1665   -1.3262   -1.9677 H       1  UNL1        0.0278
     10 H           0.6208   -1.3254   -2.8600 H       1  UNL1        0.0278
     11 H          -0.6553   -4.8153    1.1319 H       1  UNL1        0.0693
     12 C           0.0000    0.0000    0.0000 C.ar    1  UNL1        0.0264
     13 C           0.2156    0.8166    1.1130 C.ar    1  UNL1       -0.0435
     14 C           0.5711    2.1614    0.8206 C.ar    1  UNL1       -0.0428
     15 H           0.1165    0.4414    2.1429 H       1  UNL1        0.0632
     16 C           0.6347    2.4013   -0.5636 C.ar    1  UNL1       -0.0208
     17 S           0.2476    0.9385   -1.4647 S.2     1  UNL1       -0.0959
     18 C           0.8432    3.1907    1.8824 C.3     1  UNL1       -0.0392
     19 H           0.7286    2.7576    2.8950 H       1  UNL1        0.0278
     20 H           0.1481    4.0530    1.8081 H       1  UNL1        0.0278
     21 H           1.8737    3.5968    1.8082 H       1  UNL1        0.0278
     22 H           0.8795    3.3275   -1.0971 H       1  UNL1        0.0696
@<TRIPOS>BOND
     1    10     7    1
     2     8     7    1
     3     7     9    1
     4     7     3    1
     5    17    16   ar
     6    17    12   ar
     7     4     2    1
     8    22    16    1
     9     3     2   ar
    10     3     5   ar
    11     2     1   ar
    12    16    14   ar
    13    12     5    1
    14    12    13   ar
    15     5     6   ar
    16     1    11    1
    17     1     6   ar
    18    14    13   ar
    19    14    18    1
    20    13    15    1
    21    20    18    1
    22    21    18    1
    23    18    19    1
