@<TRIPOS>MOLECULE
../XYZ_Files/Methylthiophene_Phi_0_Theta_110_Methylthiophene.xyz
 22 23 0 0 0
SMALL
GASTEIGER

@<TRIPOS>ATOM
      1 C          -0.6804   -3.8878   -0.2488 C.ar    1  UNL1       -0.0235
      2 C           0.6216   -3.7015    0.2251 C.ar    1  UNL1       -0.0512
      3 C           1.0199   -2.3452    0.3708 C.ar    1  UNL1       -0.0352
      4 H           1.2853   -4.5452    0.4663 H       1  UNL1        0.0626
      5 C           0.0000   -1.4501    0.0000 C.ar    1  UNL1        0.0288
      6 S          -1.4353   -2.3213   -0.5228 S.2     1  UNL1       -0.0959
      7 C           2.3789   -1.9344    0.8656 C.3     1  UNL1       -0.0386
      8 H           3.0037   -2.8198    1.0926 H       1  UNL1        0.0278
      9 H           2.3140   -1.3262    1.7919 H       1  UNL1        0.0278
     10 H           2.9244   -1.3254    0.1148 H       1  UNL1        0.0278
     11 H          -1.2285   -4.8153   -0.4487 H       1  UNL1        0.0693
     12 C           0.0000    0.0000    0.0000 C.ar    1  UNL1        0.0264
     13 C          -0.0031    0.8446    1.1130 C.ar    1  UNL1       -0.0435
     14 C          -0.0078    2.2356    0.8206 C.ar    1  UNL1       -0.0428
     15 H          -0.0017    0.4565    2.1429 H       1  UNL1        0.0632
     16 C          -0.0084    2.4837   -0.5636 C.ar    1  UNL1       -0.0208
     17 S          -0.0037    0.9706   -1.4647 S.2     1  UNL1       -0.0959
     18 C          -0.0114    3.3002    1.8824 C.3     1  UNL1       -0.0392
     19 H          -0.0099    2.8522    2.8950 H       1  UNL1        0.0278
     20 H          -0.9059    3.9532    1.8081 H       1  UNL1        0.0278
     21 H           0.8789    3.9591    1.8082 H       1  UNL1        0.0278
     22 H          -0.0117    3.4418   -1.0971 H       1  UNL1        0.0696
@<TRIPOS>BOND
     1    17    16   ar
     2    17    12   ar
     3    22    16    1
     4    16    14   ar
     5     6     1   ar
     6     6     5   ar
     7    11     1    1
     8     1     2   ar
     9    12     5    1
    10    12    13   ar
    11     5     3   ar
    12    10     7    1
    13     2     3   ar
    14     2     4    1
    15     3     7    1
    16    14    13   ar
    17    14    18    1
    18     7     8    1
    19     7     9    1
    20    13    15    1
    21    20    18    1
    22    21    18    1
    23    18    19    1
