@<TRIPOS>MOLECULE
../XYZ_Files/Methylthiophene_Phi_10_Theta_250_Methylthiophene.xyz
 22 23 0 0 0
SMALL
GASTEIGER

@<TRIPOS>ATOM
      1 C           0.6811   -3.8878   -0.2468 C.ar    1  UNL1       -0.0235
      2 C          -0.6209   -3.7015    0.2271 C.ar    1  UNL1       -0.0512
      3 C          -1.0196   -2.3452    0.3715 C.ar    1  UNL1       -0.0352
      4 H          -1.2844   -4.5452    0.4690 H       1  UNL1        0.0626
      5 C           0.0000   -1.4501    0.0000 C.ar    1  UNL1        0.0288
      6 S           1.4355   -2.3213   -0.5221 S.2     1  UNL1       -0.0959
      7 C          -2.3787   -1.9344    0.8660 C.3     1  UNL1       -0.0386
      8 H          -3.0033   -2.8198    1.0938 H       1  UNL1        0.0278
      9 H          -2.9244   -1.3262    0.1147 H       1  UNL1        0.0278
     10 H          -2.3140   -1.3254    1.7918 H       1  UNL1        0.0278
     11 H           1.2295   -4.8153   -0.4459 H       1  UNL1        0.0693
     12 C           0.0000    0.0000    0.0000 C.ar    1  UNL1        0.0264
     13 C           0.1436    0.8323    1.1130 C.ar    1  UNL1       -0.0435
     14 C           0.3805    2.2030    0.8206 C.ar    1  UNL1       -0.0428
     15 H           0.0776    0.4499    2.1429 H       1  UNL1        0.0632
     16 C           0.4230    2.4475   -0.5636 C.ar    1  UNL1       -0.0208
     17 S           0.1649    0.9565   -1.4647 S.2     1  UNL1       -0.0959
     18 C           0.5619    3.2520    1.8824 C.3     1  UNL1       -0.0392
     19 H           0.4855    2.8106    2.8950 H       1  UNL1        0.0278
     20 H          -0.2057    4.0505    1.8081 H       1  UNL1        0.0278
     21 H           1.5530    3.7464    1.8082 H       1  UNL1        0.0278
     22 H           0.5861    3.3915   -1.0971 H       1  UNL1        0.0696
@<TRIPOS>BOND
     1    17    16   ar
     2    17    12   ar
     3    22    16    1
     4    16    14   ar
     5     6     1   ar
     6     6     5   ar
     7    11     1    1
     8     1     2   ar
     9    12     5    1
    10    12    13   ar
    11     5     3   ar
    12     9     7    1
    13     2     3   ar
    14     2     4    1
    15     3     7    1
    16    14    13   ar
    17    14    18    1
    18     7     8    1
    19     7    10    1
    20    13    15    1
    21    20    18    1
    22    21    18    1
    23    18    19    1
