@<TRIPOS>MOLECULE
../XYZ_Files/Methylthiophene_Phi_40_Theta_80_Methylthiophene.xyz
 22 23 0 0 0
SMALL
GASTEIGER

@<TRIPOS>ATOM
      1 C          -0.7136   -3.8878    0.1247 C.ar    1  UNL1       -0.0238
      2 C           0.6509   -3.7015   -0.1158 C.ar    1  UNL1       -0.0515
      3 C           1.0686   -2.3452   -0.1888 C.ar    1  UNL1       -0.0385
      4 H           1.3463   -4.5452   -0.2388 H       1  UNL1        0.0626
      5 C          -0.0000   -1.4501   -0.0000 C.ar    1  UNL1        0.0145
      6 S          -1.5044   -2.3213    0.2649 S.2     1  UNL1       -0.0996
      7 C           2.4930   -1.9344   -0.4398 C.3     1  UNL1       -0.0389
      8 H           3.1476   -2.8198   -0.5557 H       1  UNL1        0.0278
      9 H           2.8999   -1.3262    0.3949 H       1  UNL1        0.0278
     10 H           2.5900   -1.3254   -1.3628 H       1  UNL1        0.0278
     11 H          -1.2883   -4.8153    0.2256 H       1  UNL1        0.0693
     12 C           0.0000    0.0000    0.0000 C.3     1  UNL1        0.0892
     13 C           0.5405    0.6490    1.1130 C.2     1  UNL1       -0.0613
     14 C           1.4310    1.7175    0.8206 C.2     1  UNL1       -0.0606
     15 H           0.2921    0.3508    2.1429 H       1  UNL1        0.0590
     16 C           1.5901    1.9081   -0.5636 C.3     1  UNL1        0.0428
     17 S           0.6211    0.7459   -1.4647 S.3     1  UNL1       -0.1334
     18 C           2.1126    2.5354    1.8824 C.3     1  UNL1       -0.0426
     19 H           1.8258    2.1913    2.8950 H       1  UNL1        0.0275
     20 H           1.8471    3.6107    1.8081 H       1  UNL1        0.0275
     21 H           3.2182    2.4679    1.8082 H       1  UNL1        0.0275
     22 H           2.2033    2.6441   -1.0971 H       1  UNL1        0.0472
@<TRIPOS>BOND
     1    17    16    1
     2    17    12    1
     3    10     7    1
     4    22    16    1
     5    16    14    1
     6     8     7    1
     7     7     3    1
     8     7     9    1
     9     4     2    1
    10     3     2   ar
    11     3     5   ar
    12     2     1   ar
    13    12     5    1
    14    12    13    1
    15     5     6   ar
    16     1    11    1
    17     1     6   ar
    18    14    13    2
    19    14    18    1
    20    13    15    1
    21    20    18    1
    22    21    18    1
    23    18    19    1
