@<TRIPOS>MOLECULE
../XYZ_Files/Methylthiophene_Phi_10_Theta_0_Methylthiophene.xyz
 22 23 0 0 0
SMALL
GASTEIGER

@<TRIPOS>ATOM
      1 C           0.6740   -3.8289    0.7245 C.ar    1  UNL1       -0.0235
      2 C           0.6417   -3.6454   -0.6611 C.ar    1  UNL1       -0.0512
      3 C           0.4068   -2.3096   -1.0852 C.ar    1  UNL1       -0.0352
      4 H           0.7879   -4.4764   -1.3673 H       1  UNL1        0.0626
      5 C           0.2518   -1.4281    0.0000 C.ar    1  UNL1        0.0288
      6 S           0.4027   -2.2861    1.5275 S.2     1  UNL1       -0.0959
      7 C           0.3357   -1.9051   -2.5315 C.3     1  UNL1       -0.0386
      8 H           0.4890   -2.7771   -3.1963 H       1  UNL1        0.0278
      9 H           1.1092   -1.1511   -2.7873 H       1  UNL1        0.0278
     10 H          -0.6486   -1.4602   -2.7873 H       1  UNL1        0.0278
     11 H           0.8347   -4.7424    1.3079 H       1  UNL1        0.0693
     12 C           0.0000    0.0000    0.0000 C.ar    1  UNL1        0.0264
     13 C          -0.0031    0.8446    1.1130 C.ar    1  UNL1       -0.0435
     14 C          -0.0078    2.2356    0.8206 C.ar    1  UNL1       -0.0428
     15 H          -0.0017    0.4565    2.1429 H       1  UNL1        0.0632
     16 C          -0.0084    2.4837   -0.5636 C.ar    1  UNL1       -0.0208
     17 S          -0.0037    0.9706   -1.4647 S.2     1  UNL1       -0.0959
     18 C          -0.0114    3.3002    1.8824 C.3     1  UNL1       -0.0392
     19 H          -0.0099    2.8522    2.8950 H       1  UNL1        0.0278
     20 H          -0.9059    3.9532    1.8081 H       1  UNL1        0.0278
     21 H           0.8789    3.9591    1.8082 H       1  UNL1        0.0278
     22 H          -0.0117    3.4418   -1.0971 H       1  UNL1        0.0696
@<TRIPOS>BOND
     1     8     7    1
     2     9     7    1
     3    10     7    1
     4     7     3    1
     5    17    16   ar
     6    17    12   ar
     7     4     2    1
     8    22    16    1
     9     3     2   ar
    10     3     5   ar
    11     2     1   ar
    12    16    14   ar
    13    12     5    1
    14    12    13   ar
    15     5     6   ar
    16     1    11    1
    17     1     6   ar
    18    14    13   ar
    19    14    18    1
    20    13    15    1
    21    20    18    1
    22    21    18    1
    23    18    19    1
