@<TRIPOS>MOLECULE
../XYZ_Files/Methylthiophene_Phi_40_Theta_250_Methylthiophene.xyz
 22 23 0 0 0
SMALL
GASTEIGER

@<TRIPOS>ATOM
      1 C           0.6811   -3.8878   -0.2468 C.ar    1  UNL1       -0.0238
      2 C          -0.6209   -3.7015    0.2271 C.ar    1  UNL1       -0.0515
      3 C          -1.0196   -2.3452    0.3715 C.ar    1  UNL1       -0.0385
      4 H          -1.2844   -4.5452    0.4690 H       1  UNL1        0.0626
      5 C          -0.0000   -1.4501   -0.0000 C.ar    1  UNL1        0.0145
      6 S           1.4355   -2.3213   -0.5221 S.2     1  UNL1       -0.0996
      7 C          -2.3787   -1.9344    0.8660 C.3     1  UNL1       -0.0389
      8 H          -3.0033   -2.8198    1.0938 H       1  UNL1        0.0278
      9 H          -2.9244   -1.3262    0.1147 H       1  UNL1        0.0278
     10 H          -2.3140   -1.3254    1.7918 H       1  UNL1        0.0278
     11 H           1.2295   -4.8153   -0.4459 H       1  UNL1        0.0693
     12 C           0.0000    0.0000    0.0000 C.3     1  UNL1        0.0892
     13 C           0.5405    0.6490    1.1130 C.2     1  UNL1       -0.0613
     14 C           1.4310    1.7175    0.8206 C.2     1  UNL1       -0.0606
     15 H           0.2921    0.3508    2.1429 H       1  UNL1        0.0590
     16 C           1.5901    1.9081   -0.5636 C.3     1  UNL1        0.0428
     17 S           0.6211    0.7459   -1.4647 S.3     1  UNL1       -0.1334
     18 C           2.1126    2.5354    1.8824 C.3     1  UNL1       -0.0426
     19 H           1.8258    2.1913    2.8950 H       1  UNL1        0.0275
     20 H           1.8471    3.6107    1.8081 H       1  UNL1        0.0275
     21 H           3.2182    2.4679    1.8082 H       1  UNL1        0.0275
     22 H           2.2033    2.6441   -1.0971 H       1  UNL1        0.0472
@<TRIPOS>BOND
     1    17    16    1
     2    17    12    1
     3    22    16    1
     4    16    14    1
     5     6     1   ar
     6     6     5   ar
     7    11     1    1
     8     1     2   ar
     9    12     5    1
    10    12    13    1
    11     5     3   ar
    12     9     7    1
    13     2     3   ar
    14     2     4    1
    15     3     7    1
    16    14    13    2
    17    14    18    1
    18     7     8    1
    19     7    10    1
    20    13    15    1
    21    20    18    1
    22    21    18    1
    23    18    19    1
