@<TRIPOS>MOLECULE
../XYZ_Files/Methylthiophene_Phi_25_Theta_120_Methylthiophene.xyz
 22 23 0 0 0
SMALL
GASTEIGER

@<TRIPOS>ATOM
      1 C          -0.6269   -3.8878   -0.3632 C.ar    1  UNL1       -0.0235
      2 C           0.5731   -3.7015    0.3297 C.ar    1  UNL1       -0.0512
      3 C           0.9400   -2.3452    0.5423 C.ar    1  UNL1       -0.0352
      4 H           1.1848   -4.5452    0.6824 H       1  UNL1        0.0626
      5 C           0.0000   -1.4501    0.0000 C.ar    1  UNL1        0.0288
      6 S          -1.3227   -2.3213   -0.7641 S.2     1  UNL1       -0.0959
      7 C           2.1924   -1.9344    1.2655 C.3     1  UNL1       -0.0386
      8 H           2.7684   -2.8198    1.5976 H       1  UNL1        0.0278
      9 H           1.9677   -1.3262    2.1665 H       1  UNL1        0.0278
     10 H           2.8600   -1.3254    0.6208 H       1  UNL1        0.0278
     11 H          -1.1319   -4.8153   -0.6553 H       1  UNL1        0.0693
     12 C           0.0000    0.0000    0.0000 C.ar    1  UNL1        0.0264
     13 C           0.3542    0.7668    1.1130 C.ar    1  UNL1       -0.0435
     14 C           0.9378    2.0294    0.8206 C.ar    1  UNL1       -0.0428
     15 H           0.1913    0.4145    2.1429 H       1  UNL1        0.0632
     16 C           1.0420    2.2546   -0.5636 C.ar    1  UNL1       -0.0208
     17 S           0.4069    0.8812   -1.4647 S.2     1  UNL1       -0.0959
     18 C           1.3844    2.9958    1.8824 C.3     1  UNL1       -0.0392
     19 H           1.1964    2.5892    2.8950 H       1  UNL1        0.0278
     20 H           0.8496    3.9657    1.8081 H       1  UNL1        0.0278
     21 H           2.4698    3.2168    1.8082 H       1  UNL1        0.0278
     22 H           1.4439    3.1242   -1.0971 H       1  UNL1        0.0696
@<TRIPOS>BOND
     1    17    16   ar
     2    17    12   ar
     3    22    16    1
     4     6     1   ar
     5     6     5   ar
     6    11     1    1
     7    16    14   ar
     8     1     2   ar
     9    12     5    1
    10    12    13   ar
    11     5     3   ar
    12     2     3   ar
    13     2     4    1
    14     3     7    1
    15    10     7    1
    16    14    13   ar
    17    14    18    1
    18    13    15    1
    19     7     8    1
    20     7     9    1
    21    20    18    1
    22    21    18    1
    23    18    19    1
