@<TRIPOS>MOLECULE
../XYZ_Files/Methylthiophene_Phi_40_Theta_340_Methylthiophene.xyz
 22 23 0 0 0
SMALL
GASTEIGER

@<TRIPOS>ATOM
      1 C           0.2468   -3.8878    0.6811 C.ar    1  UNL1       -0.0238
      2 C          -0.2271   -3.7015   -0.6209 C.ar    1  UNL1       -0.0515
      3 C          -0.3715   -2.3452   -1.0196 C.ar    1  UNL1       -0.0385
      4 H          -0.4690   -4.5452   -1.2844 H       1  UNL1        0.0626
      5 C          -0.0000   -1.4501   -0.0000 C.ar    1  UNL1        0.0145
      6 S           0.5221   -2.3213    1.4355 S.2     1  UNL1       -0.0996
      7 C          -0.8660   -1.9344   -2.3787 C.3     1  UNL1       -0.0389
      8 H          -1.0938   -2.8198   -3.0033 H       1  UNL1        0.0278
      9 H          -0.1147   -1.3262   -2.9244 H       1  UNL1        0.0278
     10 H          -1.7918   -1.3254   -2.3140 H       1  UNL1        0.0278
     11 H           0.4459   -4.8153    1.2295 H       1  UNL1        0.0693
     12 C           0.0000    0.0000    0.0000 C.3     1  UNL1        0.0892
     13 C           0.5405    0.6490    1.1130 C.2     1  UNL1       -0.0613
     14 C           1.4310    1.7175    0.8206 C.2     1  UNL1       -0.0606
     15 H           0.2921    0.3508    2.1429 H       1  UNL1        0.0590
     16 C           1.5901    1.9081   -0.5636 C.3     1  UNL1        0.0428
     17 S           0.6211    0.7459   -1.4647 S.3     1  UNL1       -0.1334
     18 C           2.1126    2.5354    1.8824 C.3     1  UNL1       -0.0426
     19 H           1.8258    2.1913    2.8950 H       1  UNL1        0.0275
     20 H           1.8471    3.6107    1.8081 H       1  UNL1        0.0275
     21 H           3.2182    2.4679    1.8082 H       1  UNL1        0.0275
     22 H           2.2033    2.6441   -1.0971 H       1  UNL1        0.0472
@<TRIPOS>BOND
     1     8     7    1
     2     9     7    1
     3     7    10    1
     4     7     3    1
     5    17    16    1
     6    17    12    1
     7     4     2    1
     8    22    16    1
     9     3     2   ar
    10     3     5   ar
    11     2     1   ar
    12    16    14    1
    13    12     5    1
    14    12    13    1
    15     5     6   ar
    16     1    11    1
    17     1     6   ar
    18    14    13    2
    19    14    18    1
    20    13    15    1
    21    20    18    1
    22    21    18    1
    23    18    19    1
