@<TRIPOS>MOLECULE
/home/robert/research/aromodel/code/impropers-ptb7out/XYZ_Files/Dimethoxy_Benzodithiophene_Phi_20_Theta_170_Methylcarbonyl_3_Fluoro_Thienothiophene.xyz
 42 46 0 0 0
SMALL
GASTEIGER

@<TRIPOS>ATOM
      1 C          -0.0146   -8.5177   -0.3206 C.ar    1  UNL1       -0.0230
      2 C           0.1802   -7.6416    0.7372 C.ar    1  UNL1       -0.0433
      3 S          -0.2996   -7.6386   -1.8424 S.2     1  UNL1       -0.0929
      4 C           0.1149   -6.2648    0.3665 C.ar    1  UNL1        0.0355
      5 H           0.3681   -7.9661    1.7685 H       1  UNL1        0.0630
      6 C          -0.1312   -6.0727   -1.0386 C.ar    1  UNL1        0.0651
      7 C          -0.2534   -4.7870   -1.5882 C.ar    1  UNL1        0.1427
      8 C           0.2490   -5.1628    1.2588 C.ar    1  UNL1        0.1427
      9 C           0.1225   -3.8748    0.7097 C.ar    1  UNL1        0.0657
     10 C          -0.1210   -3.6840   -0.6974 C.ar    1  UNL1        0.0361
     11 O           0.5059   -5.4998    2.5533 O.3     1  UNL1       -0.4933
     12 O          -0.5127   -4.4591   -2.8884 O.3     1  UNL1       -0.4933
     13 C          -0.0809   -5.3291   -3.9276 C.3     1  UNL1        0.0789
     14 H          -0.1732   -4.7557   -4.8697 H       1  UNL1        0.0660
     15 H          -0.7164   -6.2381   -4.0075 H       1  UNL1        0.0660
     16 H           0.9781   -5.6373   -3.7896 H       1  UNL1        0.0660
     17 C           0.2469   -4.5723    3.6001 C.3     1  UNL1        0.0789
     18 H           0.3446   -5.1397    4.5449 H       1  UNL1        0.0660
     19 H          -0.7799   -4.1531    3.5321 H       1  UNL1        0.0660
     20 H           0.9833   -3.7395    3.6124 H       1  UNL1        0.0660
     21 C          -0.1880   -2.3067   -1.0642 C.ar    1  UNL1       -0.0350
     22 S           0.2786   -2.3065    1.5174 S.2     1  UNL1       -0.0839
     23 C          -0.0000   -1.4352   -0.0000 C.ar    1  UNL1        0.0284
     24 H          -0.3730   -1.9781   -2.0947 H       1  UNL1        0.0636
     25 H          -0.0185   -9.6140   -0.3222 H       1  UNL1        0.0694
     26 C           0.0000    0.0000    0.0000 C.ar    1  UNL1        0.0403
     27 S           0.3099    0.8500    1.5075 S.2     1  UNL1       -0.0943
     28 C           0.8470    2.3280    0.7189 C.ar    1  UNL1       -0.0127
     29 C           0.3100    0.8496   -1.0679 C.ar    1  UNL1        0.0382
     30 C           0.7833    2.1567   -0.6864 C.ar    1  UNL1        0.0329
     31 S           0.2294    0.6198   -2.8055 S.2     1  UNL1       -0.0778
     32 C           0.8233    2.2677   -3.0545 C.ar    1  UNL1        0.1325
     33 C           1.0633    2.9341   -1.8626 C.ar    1  UNL1        0.1527
     34 F           1.5159    4.1918   -1.8191 F       1  UNL1       -0.2034
     35 C           0.9783    2.6881   -4.4561 C.2     1  UNL1        0.3485
     36 O           0.7225    1.9619   -5.4065 O.2     1  UNL1       -0.2443
     37 O           1.4332    3.9597   -4.5692 O.3     1  UNL1       -0.4640
     38 C           1.6075    4.4231   -5.9162 C.3     1  UNL1        0.0820
     39 H           1.9775    5.4602   -5.8331 H       1  UNL1        0.0661
     40 H           0.6474    4.3966   -6.4702 H       1  UNL1        0.0661
     41 H           2.3395    3.7918   -6.4593 H       1  UNL1        0.0661
     42 H           1.1618    3.1970    1.3065 H       1  UNL1        0.0701
@<TRIPOS>BOND
     1    40    38    1
     2    41    38    1
     3    38    39    1
     4    38    37    1
     5    36    35    2
     6    14    13    1
     7    37    35    1
     8    35    32    1
     9    15    13    1
    10    13    16    1
    11    13    12    1
    12    32    31   ar
    13    32    33   ar
    14    12     7    1
    15    31    29   ar
    16    24    21    1
    17    33    34    1
    18    33    30   ar
    19     3     6   ar
    20     3     1   ar
    21     7     6   ar
    22     7    10   ar
    23    29    30   ar
    24    29    26   ar
    25    21    10   ar
    26    21    23   ar
    27     6     4   ar
    28    10     9   ar
    29    30    28   ar
    30    25     1    1
    31     1     2   ar
    32    23    26    1
    33    23    22   ar
    34    26    27   ar
    35     4     2   ar
    36     4     8   ar
    37     9     8   ar
    38     9    22   ar
    39    28    42    1
    40    28    27   ar
    41     2     5    1
    42     8    11    1
    43    11    17    1
    44    19    17    1
    45    17    20    1
    46    17    18    1
