@<TRIPOS>MOLECULE
/home/robert/research/aromodel/code/impropers-ptb7out/XYZ_Files/Dimethoxy_Benzodithiophene_Phi_50_Theta_50_Methylcarbonyl_3_Fluoro_Thienothiophene.xyz
 42 46 0 0 0
SMALL
GASTEIGER

@<TRIPOS>ATOM
      1 C          -0.2704   -8.5177    0.1729 C.ar    1  UNL1       -0.0230
      2 C           0.5484   -7.6416   -0.5247 C.ar    1  UNL1       -0.0433
      3 S          -1.4458   -7.6386    1.1806 S.2     1  UNL1       -0.0929
      4 C           0.2600   -6.2648   -0.2827 C.ar    1  UNL1        0.0355
      5 H           1.3476   -7.9661   -1.2030 H       1  UNL1        0.0630
      6 C          -0.8339   -6.0727    0.6330 C.ar    1  UNL1        0.0651
      7 C          -1.2487   -4.7870    1.0136 C.ar    1  UNL1        0.1427
      8 C           0.9657   -5.1628   -0.8451 C.ar    1  UNL1        0.1427
      9 C           0.5534   -3.8748   -0.4609 C.ar    1  UNL1        0.0654
     10 C          -0.5435   -3.6840    0.4535 C.ar    1  UNL1        0.0358
     11 O           1.9583   -5.4998   -1.7148 O.3     1  UNL1       -0.4933
     12 O          -2.2451   -4.4591    1.8882 O.3     1  UNL1       -0.4933
     13 C          -3.3610   -5.3291    2.0338 C.3     1  UNL1        0.0789
     14 H          -4.1307   -4.7557    2.5848 H       1  UNL1        0.0660
     15 H          -3.1124   -6.2381    2.6241 H       1  UNL1        0.0660
     16 H          -3.7709   -5.6373    1.0477 H       1  UNL1        0.0660
     17 C           2.9943   -4.5723   -2.0139 C.3     1  UNL1        0.0789
     18 H           3.7637   -5.1397   -2.5709 H       1  UNL1        0.0660
     19 H           3.4488   -4.1531   -1.0906 H       1  UNL1        0.0660
     20 H           2.6368   -3.7395   -2.6577 H       1  UNL1        0.0660
     21 C          -0.8277   -2.3067    0.6949 C.ar    1  UNL1       -0.0384
     22 S           1.1747   -2.3065   -1.0000 S.2     1  UNL1       -0.0876
     23 C           0.0000   -1.4352    0.0000 C.ar    1  UNL1        0.0141
     24 H          -1.6275   -1.9781    1.3704 H       1  UNL1        0.0633
     25 H          -0.2698   -9.6140    0.1771 H       1  UNL1        0.0694
     26 C           0.0000    0.0000    0.0000 C.3     1  UNL1        0.1030
     27 S           0.6934    0.5812    1.5075 S.3     1  UNL1       -0.1318
     28 C           1.8975    1.5926    0.7189 C.3     1  UNL1        0.0510
     29 C           0.6933    0.5808   -1.0679 C.ar    1  UNL1        0.0206
     30 C           1.7568    1.4761   -0.6864 C.ar    1  UNL1        0.0149
     31 S           0.5086    0.4220   -2.8055 S.2     1  UNL1       -0.0818
     32 C           1.8469    1.5522   -3.0545 C.ar    1  UNL1        0.1319
     33 C           2.3879    2.0094   -1.8626 C.ar    1  UNL1        0.1490
     34 F           3.4087    2.8723   -1.8191 F       1  UNL1       -0.2037
     35 C           2.1913    1.8388   -4.4561 C.2     1  UNL1        0.3485
     36 O           1.6067    1.3378   -5.4065 O.2     1  UNL1       -0.2443
     37 O           3.2211    2.7126   -4.5692 O.3     1  UNL1       -0.4640
     38 C           3.6037    3.0268   -5.9162 C.3     1  UNL1        0.0820
     39 H           4.4426    3.7399   -5.8331 H       1  UNL1        0.0661
     40 H           2.7590    3.4839   -6.4702 H       1  UNL1        0.0661
     41 H           3.9220    2.1141   -6.4593 H       1  UNL1        0.0661
     42 H           2.6046    2.1878    1.3065 H       1  UNL1        0.0477
@<TRIPOS>BOND
     1    40    38    1
     2    41    38    1
     3    38    39    1
     4    38    37    1
     5    36    35    2
     6    37    35    1
     7    35    32    1
     8    32    31   ar
     9    32    33   ar
    10    31    29   ar
    11    20    17    1
    12    18    17    1
    13    17    11    1
    14    17    19    1
    15    33    34    1
    16    33    30   ar
    17    11     8    1
    18     5     2    1
    19    29    30   ar
    20    29    26    1
    21    22     9   ar
    22    22    23   ar
    23     8     9   ar
    24     8     4   ar
    25    30    28    1
    26     2     4   ar
    27     2     1   ar
    28     9    10   ar
    29     4     6   ar
    30    23    26    1
    31    23    21   ar
    32    26    27    1
    33     1    25    1
    34     1     3   ar
    35    10    21   ar
    36    10     7   ar
    37     6     7   ar
    38     6     3   ar
    39    21    24    1
    40    28    42    1
    41    28    27    1
    42     7    12    1
    43    16    13    1
    44    12    13    1
    45    13    14    1
    46    13    15    1
