@<TRIPOS>MOLECULE
/home/robert/research/aromodel/code/impropers-ptb7out/XYZ_Files/Dimethoxy_Benzodithiophene_Phi_0_Theta_160_Methylcarbonyl_3_Fluoro_Thienothiophene.xyz
 42 46 0 0 0
SMALL
GASTEIGER

@<TRIPOS>ATOM
      1 C          -0.0700   -8.5177   -0.3132 C.ar    1  UNL1       -0.0230
      2 C           0.3055   -7.6416    0.6947 C.ar    1  UNL1       -0.0433
      3 S          -0.6149   -7.6386   -1.7624 S.2     1  UNL1       -0.0929
      4 C           0.1768   -6.2648    0.3410 C.ar    1  UNL1        0.0355
      5 H           0.6696   -7.9661    1.6777 H       1  UNL1        0.0630
      6 C          -0.3096   -6.0727   -1.0001 C.ar    1  UNL1        0.0651
      7 C          -0.5254   -4.7870   -1.5201 C.ar    1  UNL1        0.1427
      8 C           0.4638   -5.1628    1.1965 C.ar    1  UNL1        0.1427
      9 C           0.2439   -3.8748    0.6776 C.ar    1  UNL1        0.0657
     10 C          -0.2403   -3.6840   -0.6658 C.ar    1  UNL1        0.0361
     11 O           0.9416   -5.4998    2.4267 O.3     1  UNL1       -0.4933
     12 O          -1.0065   -4.4591   -2.7555 O.3     1  UNL1       -0.4933
     13 C          -0.7617   -5.3291   -3.8539 C.3     1  UNL1        0.0789
     14 H          -1.0161   -4.7557   -4.7656 H       1  UNL1        0.0660
     15 H          -1.4014   -6.2381   -3.8222 H       1  UNL1        0.0660
     16 H           0.3052   -5.6373   -3.9018 H       1  UNL1        0.0660
     17 C           0.8683   -4.5723    3.5025 C.3     1  UNL1        0.0789
     18 H           1.1286   -5.1397    4.4160 H       1  UNL1        0.0660
     19 H          -0.1547   -4.1531    3.6138 H       1  UNL1        0.0660
     20 H           1.5956   -3.7395    3.3868 H       1  UNL1        0.0660
     21 C          -0.3700   -2.3067   -1.0154 C.ar    1  UNL1       -0.0350
     22 S           0.5379   -2.3065    1.4459 S.2     1  UNL1       -0.0839
     23 C           0.0000   -1.4352    0.0000 C.ar    1  UNL1        0.0284
     24 H          -0.7311   -1.9781   -1.9981 H       1  UNL1        0.0636
     25 H          -0.0742   -9.6140   -0.3141 H       1  UNL1        0.0694
     26 C           0.0000    0.0000    0.0000 C.ar    1  UNL1        0.0403
     27 S           0.0005    0.9048    1.5075 S.2     1  UNL1       -0.0943
     28 C          -0.0003    2.4773    0.7189 C.ar    1  UNL1       -0.0127
     29 C           0.0008    0.9044   -1.0679 C.ar    1  UNL1        0.0382
     30 C          -0.0016    2.2946   -0.6864 C.ar    1  UNL1        0.0329
     31 S           0.0036    0.6609   -2.8055 S.2     1  UNL1       -0.0778
     32 C          -0.0019    2.4125   -3.0545 C.ar    1  UNL1        0.1325
     33 C          -0.0044    3.1209   -1.8626 C.ar    1  UNL1        0.1527
     34 F          -0.0092    4.4575   -1.8191 F       1  UNL1       -0.2034
     35 C          -0.0000    2.8606   -4.4561 C.2     1  UNL1        0.3485
     36 O           0.0079    2.0907   -5.4065 O.2     1  UNL1       -0.2443
     37 O          -0.0075    4.2111   -4.5692 O.3     1  UNL1       -0.4640
     38 C          -0.0023    4.7062   -5.9162 C.3     1  UNL1        0.0820
     39 H          -0.0093    5.8072   -5.8331 H       1  UNL1        0.0661
     40 H          -0.8954    4.3529   -6.4702 H       1  UNL1        0.0661
     41 H           0.9015    4.3633   -6.4593 H       1  UNL1        0.0661
     42 H          -0.0017    3.4016    1.3065 H       1  UNL1        0.0701
@<TRIPOS>BOND
     1    40    38    1
     2    41    38    1
     3    38    39    1
     4    38    37    1
     5    36    35    2
     6    14    13    1
     7    37    35    1
     8    35    32    1
     9    16    13    1
    10    13    15    1
    11    13    12    1
    12    32    31   ar
    13    32    33   ar
    14    31    29   ar
    15    12     7    1
    16    24    21    1
    17    33    34    1
    18    33    30   ar
    19     3     6   ar
    20     3     1   ar
    21     7     6   ar
    22     7    10   ar
    23    29    30   ar
    24    29    26   ar
    25    21    10   ar
    26    21    23   ar
    27     6     4   ar
    28    30    28   ar
    29    10     9   ar
    30    25     1    1
    31     1     2   ar
    32    23    26    1
    33    23    22   ar
    34    26    27   ar
    35     4     2   ar
    36     4     8   ar
    37     9     8   ar
    38     9    22   ar
    39     2     5    1
    40    28    42    1
    41    28    27   ar
    42     8    11    1
    43    11    17    1
    44    20    17    1
    45    17    19    1
    46    17    18    1
