@<TRIPOS>MOLECULE
/home/robert/research/aromodel/code/impropers-ptb7out/XYZ_Files/Dimethoxy_Benzodithiophene_Phi_0_Theta_60_Methylcarbonyl_3_Fluoro_Thienothiophene.xyz
 42 46 0 0 0
SMALL
GASTEIGER

@<TRIPOS>ATOM
      1 C          -0.2963   -8.5177    0.1233 C.ar    1  UNL1       -0.0230
      2 C           0.6311   -7.6416   -0.4215 C.ar    1  UNL1       -0.0433
      3 S          -1.6288   -7.6386    0.9116 S.2     1  UNL1       -0.0929
      4 C           0.3051   -6.2648   -0.2333 C.ar    1  UNL1        0.0355
      5 H           1.5360   -7.9661   -0.9507 H       1  UNL1        0.0630
      6 C          -0.9311   -6.0727    0.4786 C.ar    1  UNL1        0.0651
      7 C          -1.4057   -4.7870    0.7813 C.ar    1  UNL1        0.1427
      8 C           1.0977   -5.1628   -0.6645 C.ar    1  UNL1        0.1427
      9 C           0.6250   -3.8748   -0.3579 C.ar    1  UNL1        0.0657
     10 C          -0.6140   -3.6840    0.3523 C.ar    1  UNL1        0.0361
     11 O           2.2263   -5.4998   -1.3487 O.3     1  UNL1       -0.4933
     12 O          -2.5388   -4.4591    1.4697 O.3     1  UNL1       -0.4933
     13 C          -3.6631   -5.3291    1.4193 C.3     1  UNL1        0.0789
     14 H          -4.5168   -4.7557    1.8282 H       1  UNL1        0.0660
     15 H          -3.5208   -6.2381    2.0438 H       1  UNL1        0.0660
     16 H          -3.8955   -5.6373    0.3770 H       1  UNL1        0.0660
     17 C           3.2985   -4.5723   -1.4634 C.3     1  UNL1        0.0789
     18 H           4.1529   -5.1397   -1.8782 H       1  UNL1        0.0660
     19 H           3.5858   -4.1531   -0.4752 H       1  UNL1        0.0660
     20 H           3.0582   -3.7395   -2.1595 H       1  UNL1        0.0660
     21 C          -0.9358   -2.3067    0.5407 C.ar    1  UNL1       -0.0350
     22 S           1.3305   -2.3065   -0.7808 S.2     1  UNL1       -0.0839
     23 C           0.0000   -1.4352    0.0000 C.ar    1  UNL1        0.0284
     24 H          -1.8408   -1.9781    1.0669 H       1  UNL1        0.0636
     25 H          -0.2965   -9.6140    0.1276 H       1  UNL1        0.0694
     26 C           0.0000    0.0000    0.0000 C.ar    1  UNL1        0.0403
     27 S           0.0005    0.9048    1.5075 S.2     1  UNL1       -0.0943
     28 C          -0.0003    2.4773    0.7189 C.ar    1  UNL1       -0.0127
     29 C           0.0008    0.9044   -1.0679 C.ar    1  UNL1        0.0382
     30 C          -0.0016    2.2946   -0.6864 C.ar    1  UNL1        0.0329
     31 S           0.0036    0.6609   -2.8055 S.2     1  UNL1       -0.0778
     32 C          -0.0019    2.4125   -3.0545 C.ar    1  UNL1        0.1325
     33 C          -0.0044    3.1209   -1.8626 C.ar    1  UNL1        0.1527
     34 F          -0.0092    4.4575   -1.8191 F       1  UNL1       -0.2034
     35 C          -0.0000    2.8606   -4.4561 C.2     1  UNL1        0.3485
     36 O           0.0079    2.0907   -5.4065 O.2     1  UNL1       -0.2443
     37 O          -0.0075    4.2111   -4.5692 O.3     1  UNL1       -0.4640
     38 C          -0.0023    4.7062   -5.9162 C.3     1  UNL1        0.0820
     39 H          -0.0093    5.8072   -5.8331 H       1  UNL1        0.0661
     40 H          -0.8954    4.3529   -6.4702 H       1  UNL1        0.0661
     41 H           0.9015    4.3633   -6.4593 H       1  UNL1        0.0661
     42 H          -0.0017    3.4016    1.3065 H       1  UNL1        0.0701
@<TRIPOS>BOND
     1    40    38    1
     2    41    38    1
     3    38    39    1
     4    38    37    1
     5    36    35    2
     6    37    35    1
     7    35    32    1
     8    32    31   ar
     9    32    33   ar
    10    31    29   ar
    11    20    17    1
    12    18    17    1
    13    33    34    1
    14    33    30   ar
    15    17    11    1
    16    17    19    1
    17    11     8    1
    18    29    30   ar
    19    29    26   ar
    20     5     2    1
    21    22     9   ar
    22    22    23   ar
    23    30    28   ar
    24     8     9   ar
    25     8     4   ar
    26     2     4   ar
    27     2     1   ar
    28     9    10   ar
    29     4     6   ar
    30    26    23    1
    31    26    27   ar
    32    23    21   ar
    33     1    25    1
    34     1     3   ar
    35    10    21   ar
    36    10     7   ar
    37    16    13    1
    38     6     7   ar
    39     6     3   ar
    40    21    24    1
    41    28    42    1
    42    28    27   ar
    43     7    12    1
    44    13    12    1
    45    13    14    1
    46    13    15    1
