@<TRIPOS>MOLECULE
/home/robert/research/aromodel/code/impropers-ptb7out/XYZ_Files/Dimethoxy_Benzodithiophene_Phi_40_Theta_340_Methylcarbonyl_3_Fluoro_Thienothiophene.xyz
 42 46 0 0 0
SMALL
GASTEIGER

@<TRIPOS>ATOM
      1 C           0.0700   -8.5177    0.3132 C.ar    1  UNL1       -0.0230
      2 C          -0.3055   -7.6416   -0.6947 C.ar    1  UNL1       -0.0433
      3 S           0.6149   -7.6386    1.7624 S.2     1  UNL1       -0.0929
      4 C          -0.1768   -6.2648   -0.3410 C.ar    1  UNL1        0.0355
      5 H          -0.6696   -7.9661   -1.6777 H       1  UNL1        0.0630
      6 C           0.3096   -6.0727    1.0001 C.ar    1  UNL1        0.0651
      7 C           0.5254   -4.7870    1.5201 C.ar    1  UNL1        0.1427
      8 C          -0.4638   -5.1628   -1.1965 C.ar    1  UNL1        0.1427
      9 C          -0.2439   -3.8748   -0.6776 C.ar    1  UNL1        0.0654
     10 C           0.2403   -3.6840    0.6658 C.ar    1  UNL1        0.0358
     11 O          -0.9416   -5.4998   -2.4267 O.3     1  UNL1       -0.4933
     12 O           1.0065   -4.4591    2.7555 O.3     1  UNL1       -0.4933
     13 C           0.7617   -5.3291    3.8539 C.3     1  UNL1        0.0789
     14 H           1.0161   -4.7557    4.7656 H       1  UNL1        0.0660
     15 H           1.4014   -6.2381    3.8222 H       1  UNL1        0.0660
     16 H          -0.3052   -5.6373    3.9018 H       1  UNL1        0.0660
     17 C          -0.8683   -4.5723   -3.5025 C.3     1  UNL1        0.0789
     18 H          -1.1286   -5.1397   -4.4160 H       1  UNL1        0.0660
     19 H           0.1547   -4.1531   -3.6138 H       1  UNL1        0.0660
     20 H          -1.5956   -3.7395   -3.3868 H       1  UNL1        0.0660
     21 C           0.3700   -2.3067    1.0154 C.ar    1  UNL1       -0.0384
     22 S          -0.5379   -2.3065   -1.4459 S.2     1  UNL1       -0.0876
     23 C          -0.0000   -1.4352   -0.0000 C.ar    1  UNL1        0.0141
     24 H           0.7311   -1.9781    1.9981 H       1  UNL1        0.0633
     25 H           0.0742   -9.6140    0.3141 H       1  UNL1        0.0694
     26 C           0.0000    0.0000    0.0000 C.3     1  UNL1        0.1030
     27 S           0.5819    0.6928    1.5075 S.3     1  UNL1       -0.1318
     28 C           1.5922    1.8979    0.7189 C.3     1  UNL1        0.0510
     29 C           0.5819    0.6924   -1.0679 C.ar    1  UNL1        0.0206
     30 C           1.4737    1.7588   -0.6864 C.ar    1  UNL1        0.0149
     31 S           0.4276    0.5039   -2.8055 S.2     1  UNL1       -0.0818
     32 C           1.5493    1.8494   -3.0545 C.ar    1  UNL1        0.1319
     33 C           2.0027    2.3935   -1.8626 C.ar    1  UNL1        0.1490
     34 F           2.8582    3.4205   -1.8191 F       1  UNL1       -0.2037
     35 C           1.8387    2.1913   -4.4561 C.2     1  UNL1        0.3485
     36 O           1.3500    1.5965   -5.4065 O.2     1  UNL1       -0.2443
     37 O           2.7011    3.2307   -4.5692 O.3     1  UNL1       -0.4640
     38 C           3.0233    3.6066   -5.9162 C.3     1  UNL1        0.0820
     39 H           3.7257    4.4545   -5.8331 H       1  UNL1        0.0661
     40 H           2.1121    3.9100   -6.4702 H       1  UNL1        0.0661
     41 H           3.4953    2.7630   -6.4593 H       1  UNL1        0.0661
     42 H           2.1852    2.6068    1.3065 H       1  UNL1        0.0477
@<TRIPOS>BOND
     1    40    38    1
     2    41    38    1
     3    38    39    1
     4    38    37    1
     5    36    35    2
     6    37    35    1
     7    35    32    1
     8    18    17    1
     9    19    17    1
    10    17    20    1
    11    17    11    1
    12    32    31   ar
    13    32    33   ar
    14    31    29   ar
    15    11     8    1
    16    33    34    1
    17    33    30   ar
    18     5     2    1
    19    22     9   ar
    20    22    23   ar
    21     8     9   ar
    22     8     4   ar
    23    29    30   ar
    24    29    26    1
    25     2     4   ar
    26     2     1   ar
    27    30    28    1
    28     9    10   ar
    29     4     6   ar
    30    23    26    1
    31    23    21   ar
    32    26    27    1
    33     1    25    1
    34     1     3   ar
    35    10    21   ar
    36    10     7   ar
    37    28    42    1
    38    28    27    1
    39     6     7   ar
    40     6     3   ar
    41    21    24    1
    42     7    12    1
    43    12    13    1
    44    15    13    1
    45    13    16    1
    46    13    14    1
