@<TRIPOS>MOLECULE
/home/robert/research/aromodel/code/impropers-ptb7out/XYZ_Files/Dimethoxy_Benzodithiophene_Phi_30_Theta_310_Methylcarbonyl_3_Fluoro_Thienothiophene.xyz
 42 46 0 0 0
SMALL
GASTEIGER

@<TRIPOS>ATOM
      1 C           0.2172   -8.5177    0.2362 C.ar    1  UNL1       -0.0230
      2 C          -0.6119   -7.6416   -0.4489 C.ar    1  UNL1       -0.0433
      3 S           1.4137   -7.6386    1.2188 S.2     1  UNL1       -0.0929
      4 C          -0.3236   -6.2648   -0.2069 C.ar    1  UNL1        0.0355
      5 H          -1.4187   -7.9661   -1.1182 H       1  UNL1        0.0630
      6 C           0.7682   -6.0727    0.7113 C.ar    1  UNL1        0.0651
      7 C           1.2150   -4.7870    1.0537 C.ar    1  UNL1        0.1427
      8 C          -0.9999   -5.1628   -0.8043 C.ar    1  UNL1        0.1427
      9 C          -0.5500   -3.8748   -0.4649 C.ar    1  UNL1        0.0657
     10 C           0.5410   -3.6840    0.4565 C.ar    1  UNL1        0.0361
     11 O          -2.0288   -5.4998   -1.6308 O.3     1  UNL1       -0.4933
     12 O           2.2494   -4.4591    1.8831 O.3     1  UNL1       -0.4933
     13 C           2.5866   -5.3291    2.9568 C.3     1  UNL1        0.0789
     14 H           3.2628   -4.7557    3.6191 H       1  UNL1        0.0660
     15 H           3.1247   -6.2381    2.6094 H       1  UNL1        0.0660
     16 H           1.6866   -5.6373    3.5317 H       1  UNL1        0.0660
     17 C          -2.5033   -4.5723   -2.5991 C.3     1  UNL1        0.0789
     18 H          -3.1854   -5.1397   -3.2601 H       1  UNL1        0.0660
     19 H          -1.6729   -4.1531   -3.2070 H       1  UNL1        0.0660
     20 H          -3.0752   -3.7395   -2.1352 H       1  UNL1        0.0660
     21 C           0.8281   -2.3067    0.6944 C.ar    1  UNL1       -0.0350
     22 S          -1.1888   -2.3065   -0.9833 S.2     1  UNL1       -0.0839
     23 C          -0.0000   -1.4352   -0.0000 C.ar    1  UNL1        0.0284
     24 H           1.6322   -1.9781    1.3649 H       1  UNL1        0.0636
     25 H           0.2213   -9.6140    0.2350 H       1  UNL1        0.0694
     26 C           0.0000    0.0000    0.0000 C.ar    1  UNL1        0.0403
     27 S           0.4528    0.7833    1.5075 S.2     1  UNL1       -0.0943
     28 C           1.2384    2.1456    0.7189 C.ar    1  UNL1       -0.0127
     29 C           0.4529    0.7829   -1.0679 C.ar    1  UNL1        0.0382
     30 C           1.1459    1.9880   -0.6864 C.ar    1  UNL1        0.0329
     31 S           0.3336    0.5705   -2.8055 S.2     1  UNL1       -0.0778
     32 C           1.2046    2.0903   -3.0545 C.ar    1  UNL1        0.1325
     33 C           1.5566    2.7049   -1.8626 C.ar    1  UNL1        0.1527
     34 F           2.2208    3.8649   -1.8191 F       1  UNL1       -0.2034
     35 C           1.4303    2.4773   -4.4561 C.2     1  UNL1        0.3485
     36 O           1.0522    1.8066   -5.4065 O.2     1  UNL1       -0.2443
     37 O           2.0991    3.6507   -4.5692 O.3     1  UNL1       -0.4640
     38 C           2.3511    4.0768   -5.9162 C.3     1  UNL1        0.0820
     39 H           2.8956    5.0338   -5.8331 H       1  UNL1        0.0661
     40 H           1.4010    4.2174   -6.4702 H       1  UNL1        0.0661
     41 H           2.9624    3.3280   -6.4593 H       1  UNL1        0.0661
     42 H           1.6993    2.9467    1.3065 H       1  UNL1        0.0701
@<TRIPOS>BOND
     1    40    38    1
     2    41    38    1
     3    38    39    1
     4    38    37    1
     5    36    35    2
     6    37    35    1
     7    35    32    1
     8    18    17    1
     9    19    17    1
    10    32    31   ar
    11    32    33   ar
    12    31    29   ar
    13    17    20    1
    14    17    11    1
    15    33    34    1
    16    33    30   ar
    17    11     8    1
    18     5     2    1
    19    29    30   ar
    20    29    26   ar
    21    22     9   ar
    22    22    23   ar
    23     8     9   ar
    24     8     4   ar
    25    30    28   ar
    26     9    10   ar
    27     2     4   ar
    28     2     1   ar
    29     4     6   ar
    30    26    23    1
    31    26    27   ar
    32    23    21   ar
    33    25     1    1
    34     1     3   ar
    35    10    21   ar
    36    10     7   ar
    37    21    24    1
    38     6     7   ar
    39     6     3   ar
    40    28    42    1
    41    28    27   ar
    42     7    12    1
    43    12    13    1
    44    15    13    1
    45    13    16    1
    46    13    14    1
