@<TRIPOS>MOLECULE
/home/robert/research/aromodel/code/impropers-ptb7out/XYZ_Files/Dimethoxy_Benzodithiophene_Phi_10_Theta_210_Methylcarbonyl_3_Fluoro_Thienothiophene.xyz
 42 46 0 0 0
SMALL
GASTEIGER

@<TRIPOS>ATOM
      1 C           0.1949   -8.5177   -0.2549 C.ar    1  UNL1       -0.0230
      2 C          -0.3358   -7.6416    0.6806 C.ar    1  UNL1       -0.0433
      3 S           0.9548   -7.6386   -1.6039 S.2     1  UNL1       -0.0929
      4 C          -0.1476   -6.2648    0.3546 C.ar    1  UNL1        0.0355
      5 H          -0.8548   -7.9661    1.5914 H       1  UNL1        0.0630
      6 C           0.5671   -6.0727   -0.8800 C.ar    1  UNL1        0.0651
      7 C           0.8267   -4.7870   -1.3795 C.ar    1  UNL1        0.1427
      8 C          -0.6184   -5.1628    1.1244 C.ar    1  UNL1        0.1427
      9 C          -0.3623   -3.8748    0.6224 C.ar    1  UNL1        0.0657
     10 C           0.3556   -3.6840   -0.6121 C.ar    1  UNL1        0.0361
     11 O          -1.2537   -5.4998    2.2812 O.3     1  UNL1       -0.4933
     12 O           1.4639   -4.4591   -2.5422 O.3     1  UNL1       -0.4933
     13 C           2.4627   -5.3291   -3.0607 C.3     1  UNL1        0.0789
     14 H           2.9975   -4.7557   -3.8417 H       1  UNL1        0.0660
     15 H           2.0272   -6.2381   -3.5304 H       1  UNL1        0.0660
     16 H           3.1851   -5.6373   -2.2743 H       1  UNL1        0.0660
     17 C          -2.1249   -4.5723    2.9165 C.3     1  UNL1        0.0789
     18 H          -2.6574   -5.1397    3.7031 H       1  UNL1        0.0660
     19 H          -2.8678   -4.1531    2.2044 H       1  UNL1        0.0660
     20 H          -1.5688   -3.7395    3.3993 H       1  UNL1        0.0660
     21 C           0.5401   -2.3067   -0.9361 C.ar    1  UNL1       -0.0350
     22 S          -0.7619   -2.3065    1.3415 S.2     1  UNL1       -0.0839
     23 C          -0.0000   -1.4352   -0.0000 C.ar    1  UNL1        0.0284
     24 H           1.0607   -1.9781   -1.8444 H       1  UNL1        0.0636
     25 H           0.1930   -9.6140   -0.2587 H       1  UNL1        0.0694
     26 C           0.0000    0.0000    0.0000 C.ar    1  UNL1        0.0403
     27 S           0.1576    0.8909    1.5075 S.2     1  UNL1       -0.0943
     28 C           0.4299    2.4397    0.7189 C.ar    1  UNL1       -0.0127
     29 C           0.1578    0.8906   -1.0679 C.ar    1  UNL1        0.0382
     30 C           0.3969    2.2600   -0.6864 C.ar    1  UNL1        0.0329
     31 S           0.1183    0.6502   -2.8055 S.2     1  UNL1       -0.0778
     32 C           0.4170    2.3762   -3.0545 C.ar    1  UNL1        0.1325
     33 C           0.5376    3.0742   -1.8626 C.ar    1  UNL1        0.1527
     34 F           0.7650    4.3914   -1.8191 F       1  UNL1       -0.2034
     35 C           0.4967    2.8171   -4.4561 C.2     1  UNL1        0.3485
     36 O           0.3709    2.0576   -5.4065 O.2     1  UNL1       -0.2443
     37 O           0.7239    4.1484   -4.5692 O.3     1  UNL1       -0.4640
     38 C           0.8150    4.6351   -5.9162 C.3     1  UNL1        0.0820
     39 H           0.9993    5.7206   -5.8331 H       1  UNL1        0.0661
     40 H          -0.1259    4.4422   -6.4702 H       1  UNL1        0.0661
     41 H           1.6455    4.1405   -6.4593 H       1  UNL1        0.0661
     42 H           0.5890    3.3502    1.3065 H       1  UNL1        0.0701
@<TRIPOS>BOND
     1    40    38    1
     2    41    38    1
     3    38    39    1
     4    38    37    1
     5    36    35    2
     6    37    35    1
     7    35    32    1
     8    14    13    1
     9    15    13    1
    10    13    12    1
    11    13    16    1
    12    32    31   ar
    13    32    33   ar
    14    31    29   ar
    15    12     7    1
    16    33    34    1
    17    33    30   ar
    18    24    21    1
    19     3     6   ar
    20     3     1   ar
    21     7     6   ar
    22     7    10   ar
    23    29    30   ar
    24    29    26   ar
    25    21    10   ar
    26    21    23   ar
    27     6     4   ar
    28    30    28   ar
    29    10     9   ar
    30    25     1    1
    31     1     2   ar
    32    23    26    1
    33    23    22   ar
    34    26    27   ar
    35     4     2   ar
    36     4     8   ar
    37     9     8   ar
    38     9    22   ar
    39     2     5    1
    40    28    42    1
    41    28    27   ar
    42     8    11    1
    43    19    17    1
    44    11    17    1
    45    17    20    1
    46    17    18    1
