@<TRIPOS>MOLECULE
/home/robert/research/aromodel/code/impropers-ptb7out/XYZ_Files/Dimethoxy_Benzodithiophene_Phi_15_Theta_250_Methylcarbonyl_3_Fluoro_Thienothiophene.xyz
 42 46 0 0 0
SMALL
GASTEIGER

@<TRIPOS>ATOM
      1 C           0.3132   -8.5177   -0.0700 C.ar    1  UNL1       -0.0230
      2 C          -0.6947   -7.6416    0.3055 C.ar    1  UNL1       -0.0433
      3 S           1.7624   -7.6386   -0.6149 S.2     1  UNL1       -0.0929
      4 C          -0.3410   -6.2648    0.1768 C.ar    1  UNL1        0.0355
      5 H          -1.6777   -7.9661    0.6696 H       1  UNL1        0.0630
      6 C           1.0001   -6.0727   -0.3096 C.ar    1  UNL1        0.0651
      7 C           1.5201   -4.7870   -0.5254 C.ar    1  UNL1        0.1427
      8 C          -1.1965   -5.1628    0.4638 C.ar    1  UNL1        0.1427
      9 C          -0.6776   -3.8748    0.2439 C.ar    1  UNL1        0.0657
     10 C           0.6658   -3.6840   -0.2403 C.ar    1  UNL1        0.0361
     11 O          -2.4267   -5.4998    0.9416 O.3     1  UNL1       -0.4933
     12 O           2.7555   -4.4591   -1.0065 O.3     1  UNL1       -0.4933
     13 C           3.8539   -5.3291   -0.7617 C.3     1  UNL1        0.0789
     14 H           4.7656   -4.7557   -1.0161 H       1  UNL1        0.0660
     15 H           3.8222   -6.2381   -1.4014 H       1  UNL1        0.0660
     16 H           3.9018   -5.6373    0.3052 H       1  UNL1        0.0660
     17 C          -3.5025   -4.5723    0.8683 C.3     1  UNL1        0.0789
     18 H          -4.4160   -5.1397    1.1286 H       1  UNL1        0.0660
     19 H          -3.6138   -4.1531   -0.1547 H       1  UNL1        0.0660
     20 H          -3.3868   -3.7395    1.5956 H       1  UNL1        0.0660
     21 C           1.0154   -2.3067   -0.3700 C.ar    1  UNL1       -0.0350
     22 S          -1.4459   -2.3065    0.5379 S.2     1  UNL1       -0.0839
     23 C           0.0000   -1.4352    0.0000 C.ar    1  UNL1        0.0284
     24 H           1.9981   -1.9781   -0.7311 H       1  UNL1        0.0636
     25 H           0.3141   -9.6140   -0.0742 H       1  UNL1        0.0694
     26 C           0.0000    0.0000    0.0000 C.ar    1  UNL1        0.0403
     27 S           0.2346    0.8738    1.5075 S.2     1  UNL1       -0.0943
     28 C           0.6409    2.3930    0.7189 C.ar    1  UNL1       -0.0127
     29 C           0.2348    0.8734   -1.0679 C.ar    1  UNL1        0.0382
     30 C           0.5924    2.2168   -0.6864 C.ar    1  UNL1        0.0329
     31 S           0.1745    0.6374   -2.8055 S.2     1  UNL1       -0.0778
     32 C           0.6226    2.3308   -3.0545 C.ar    1  UNL1        0.1325
     33 C           0.8035    3.0156   -1.8626 C.ar    1  UNL1        0.1527
     34 F           1.1448    4.3080   -1.8191 F       1  UNL1       -0.2034
     35 C           0.7403    2.7631   -4.4561 C.2     1  UNL1        0.3485
     36 O           0.5488    2.0174   -5.4065 O.2     1  UNL1       -0.2443
     37 O           1.0827    4.0695   -4.5692 O.3     1  UNL1       -0.4640
     38 C           1.2158    4.5464   -5.9162 C.3     1  UNL1        0.0820
     39 H           1.4941    5.6117   -5.8331 H       1  UNL1        0.0661
     40 H           0.2617    4.4363   -6.4702 H       1  UNL1        0.0661
     41 H           2.0001    3.9813   -6.4593 H       1  UNL1        0.0661
     42 H           0.8787    3.2861    1.3065 H       1  UNL1        0.0701
@<TRIPOS>BOND
     1    40    38    1
     2    41    38    1
     3    38    39    1
     4    38    37    1
     5    36    35    2
     6    37    35    1
     7    35    32    1
     8    32    31   ar
     9    32    33   ar
    10    31    29   ar
    11    33    34    1
    12    33    30   ar
    13    15    13    1
    14    29    30   ar
    15    29    26   ar
    16    14    13    1
    17    12    13    1
    18    12     7    1
    19    13    16    1
    20    24    21    1
    21    30    28   ar
    22     3     6   ar
    23     3     1   ar
    24     7     6   ar
    25     7    10   ar
    26    21    10   ar
    27    21    23   ar
    28     6     4   ar
    29    10     9   ar
    30    19    17    1
    31    25     1    1
    32     1     2   ar
    33    23    26    1
    34    23    22   ar
    35    26    27   ar
    36     4     2   ar
    37     4     8   ar
    38     9     8   ar
    39     9    22   ar
    40     2     5    1
    41     8    11    1
    42    28    42    1
    43    28    27   ar
    44    17    11    1
    45    17    18    1
    46    17    20    1
