@<TRIPOS>MOLECULE
/home/robert/research/aromodel/code/impropers-ptb7out/XYZ_Files/Dimethoxy_Benzodithiophene_Phi_15_Theta_150_Methylcarbonyl_3_Fluoro_Thienothiophene.xyz
 42 46 0 0 0
SMALL
GASTEIGER

@<TRIPOS>ATOM
      1 C          -0.1233   -8.5177   -0.2963 C.ar    1  UNL1       -0.0230
      2 C           0.4215   -7.6416    0.6311 C.ar    1  UNL1       -0.0433
      3 S          -0.9116   -7.6386   -1.6288 S.2     1  UNL1       -0.0929
      4 C           0.2333   -6.2648    0.3051 C.ar    1  UNL1        0.0355
      5 H           0.9507   -7.9661    1.5360 H       1  UNL1        0.0630
      6 C          -0.4786   -6.0727   -0.9311 C.ar    1  UNL1        0.0651
      7 C          -0.7813   -4.7870   -1.4057 C.ar    1  UNL1        0.1427
      8 C           0.6645   -5.1628    1.0977 C.ar    1  UNL1        0.1427
      9 C           0.3579   -3.8748    0.6250 C.ar    1  UNL1        0.0657
     10 C          -0.3523   -3.6840   -0.6140 C.ar    1  UNL1        0.0361
     11 O           1.3487   -5.4998    2.2263 O.3     1  UNL1       -0.4933
     12 O          -1.4697   -4.4591   -2.5388 O.3     1  UNL1       -0.4933
     13 C          -1.4193   -5.3291   -3.6631 C.3     1  UNL1        0.0789
     14 H          -1.8282   -4.7557   -4.5168 H       1  UNL1        0.0660
     15 H          -2.0438   -6.2381   -3.5208 H       1  UNL1        0.0660
     16 H          -0.3770   -5.6373   -3.8955 H       1  UNL1        0.0660
     17 C           1.4634   -4.5723    3.2985 C.3     1  UNL1        0.0789
     18 H           1.8782   -5.1397    4.1529 H       1  UNL1        0.0660
     19 H           0.4752   -4.1531    3.5858 H       1  UNL1        0.0660
     20 H           2.1595   -3.7395    3.0582 H       1  UNL1        0.0660
     21 C          -0.5407   -2.3067   -0.9358 C.ar    1  UNL1       -0.0350
     22 S           0.7808   -2.3065    1.3305 S.2     1  UNL1       -0.0839
     23 C           0.0000   -1.4352    0.0000 C.ar    1  UNL1        0.0284
     24 H          -1.0669   -1.9781   -1.8408 H       1  UNL1        0.0636
     25 H          -0.1276   -9.6140   -0.2965 H       1  UNL1        0.0694
     26 C           0.0000    0.0000    0.0000 C.ar    1  UNL1        0.0403
     27 S           0.2346    0.8738    1.5075 S.2     1  UNL1       -0.0943
     28 C           0.6409    2.3930    0.7189 C.ar    1  UNL1       -0.0127
     29 C           0.2348    0.8734   -1.0679 C.ar    1  UNL1        0.0382
     30 C           0.5924    2.2168   -0.6864 C.ar    1  UNL1        0.0329
     31 S           0.1745    0.6374   -2.8055 S.2     1  UNL1       -0.0778
     32 C           0.6226    2.3308   -3.0545 C.ar    1  UNL1        0.1325
     33 C           0.8035    3.0156   -1.8626 C.ar    1  UNL1        0.1527
     34 F           1.1448    4.3080   -1.8191 F       1  UNL1       -0.2034
     35 C           0.7403    2.7631   -4.4561 C.2     1  UNL1        0.3485
     36 O           0.5488    2.0174   -5.4065 O.2     1  UNL1       -0.2443
     37 O           1.0827    4.0695   -4.5692 O.3     1  UNL1       -0.4640
     38 C           1.2158    4.5464   -5.9162 C.3     1  UNL1        0.0820
     39 H           1.4941    5.6117   -5.8331 H       1  UNL1        0.0661
     40 H           0.2617    4.4363   -6.4702 H       1  UNL1        0.0661
     41 H           2.0001    3.9813   -6.4593 H       1  UNL1        0.0661
     42 H           0.8787    3.2861    1.3065 H       1  UNL1        0.0701
@<TRIPOS>BOND
     1    40    38    1
     2    41    38    1
     3    38    39    1
     4    38    37    1
     5    36    35    2
     6    37    35    1
     7    14    13    1
     8    35    32    1
     9    16    13    1
    10    13    15    1
    11    13    12    1
    12    32    31   ar
    13    32    33   ar
    14    31    29   ar
    15    12     7    1
    16    33    34    1
    17    33    30   ar
    18    24    21    1
    19     3     6   ar
    20     3     1   ar
    21     7     6   ar
    22     7    10   ar
    23    29    30   ar
    24    29    26   ar
    25    21    10   ar
    26    21    23   ar
    27     6     4   ar
    28    30    28   ar
    29    10     9   ar
    30    25     1    1
    31     1     2   ar
    32    23    26    1
    33    23    22   ar
    34    26    27   ar
    35     4     2   ar
    36     4     8   ar
    37     9     8   ar
    38     9    22   ar
    39     2     5    1
    40    28    42    1
    41    28    27   ar
    42     8    11    1
    43    11    17    1
    44    20    17    1
    45    17    19    1
    46    17    18    1
