@<TRIPOS>MOLECULE
/home/robert/research/aromodel/code/impropers-ptb7out/XYZ_Files/Dimethoxy_Benzodithiophene_Phi_10_Theta_180_Methylcarbonyl_3_Fluoro_Thienothiophene.xyz
 42 46 0 0 0
SMALL
GASTEIGER

@<TRIPOS>ATOM
      1 C           0.0413   -8.5177   -0.3182 C.ar    1  UNL1       -0.0230
      2 C           0.0495   -7.6416    0.7573 C.ar    1  UNL1       -0.0433
      3 S           0.0249   -7.6386   -1.8664 S.2     1  UNL1       -0.0929
      4 C           0.0495   -6.2648    0.3809 C.ar    1  UNL1        0.0355
      5 H           0.0554   -7.9661    1.8056 H       1  UNL1        0.0630
      6 C           0.0511   -6.0727   -1.0456 C.ar    1  UNL1        0.0651
      7 C           0.0262   -4.7870   -1.6081 C.ar    1  UNL1        0.1427
      8 C           0.0266   -5.1628    1.2829 C.ar    1  UNL1        0.1427
      9 C          -0.0026   -3.8748    0.7202 C.ar    1  UNL1        0.0657
     10 C           0.0019   -3.6840   -0.7079 C.ar    1  UNL1        0.0361
     11 O           0.0549   -5.4998    2.6024 O.3     1  UNL1       -0.4933
     12 O          -0.0033   -4.4591   -2.9335 O.3     1  UNL1       -0.4933
     13 C           0.6024   -5.3291   -3.8820 C.3     1  UNL1        0.0789
     14 H           0.6751   -4.7557   -4.8257 H       1  UNL1        0.0660
     15 H          -0.0096   -6.2381   -4.0710 H       1  UNL1        0.0660
     16 H           1.6213   -5.6373   -3.5622 H       1  UNL1        0.0660
     17 C          -0.3819   -4.5723    3.5883 C.3     1  UNL1        0.0789
     18 H          -0.4499   -5.1397    4.5357 H       1  UNL1        0.0660
     19 H          -1.3814   -4.1531    3.3430 H       1  UNL1        0.0660
     20 H           0.3410   -3.7395    3.7282 H       1  UNL1        0.0660
     21 C          -0.0003   -2.3067   -1.0807 C.ar    1  UNL1       -0.0350
     22 S           0.0109   -2.3065    1.5427 S.2     1  UNL1       -0.0839
     23 C          -0.0000   -1.4352   -0.0000 C.ar    1  UNL1        0.0284
     24 H          -0.0036   -1.9781   -2.1276 H       1  UNL1        0.0636
     25 H           0.0378   -9.6140   -0.3206 H       1  UNL1        0.0694
     26 C           0.0000    0.0000    0.0000 C.ar    1  UNL1        0.0403
     27 S           0.1576    0.8909    1.5075 S.2     1  UNL1       -0.0943
     28 C           0.4299    2.4397    0.7189 C.ar    1  UNL1       -0.0127
     29 C           0.1578    0.8906   -1.0679 C.ar    1  UNL1        0.0382
     30 C           0.3969    2.2600   -0.6864 C.ar    1  UNL1        0.0329
     31 S           0.1183    0.6502   -2.8055 S.2     1  UNL1       -0.0778
     32 C           0.4170    2.3762   -3.0545 C.ar    1  UNL1        0.1325
     33 C           0.5376    3.0742   -1.8626 C.ar    1  UNL1        0.1527
     34 F           0.7650    4.3914   -1.8191 F       1  UNL1       -0.2034
     35 C           0.4967    2.8171   -4.4561 C.2     1  UNL1        0.3485
     36 O           0.3709    2.0576   -5.4065 O.2     1  UNL1       -0.2443
     37 O           0.7239    4.1484   -4.5692 O.3     1  UNL1       -0.4640
     38 C           0.8150    4.6351   -5.9162 C.3     1  UNL1        0.0820
     39 H           0.9993    5.7206   -5.8331 H       1  UNL1        0.0661
     40 H          -0.1259    4.4422   -6.4702 H       1  UNL1        0.0661
     41 H           1.6455    4.1405   -6.4593 H       1  UNL1        0.0661
     42 H           0.5890    3.3502    1.3065 H       1  UNL1        0.0701
@<TRIPOS>BOND
     1    40    38    1
     2    41    38    1
     3    38    39    1
     4    38    37    1
     5    36    35    2
     6    14    13    1
     7    37    35    1
     8    35    32    1
     9    15    13    1
    10    13    16    1
    11    13    12    1
    12    32    31   ar
    13    32    33   ar
    14    12     7    1
    15    31    29   ar
    16    24    21    1
    17     3     6   ar
    18     3     1   ar
    19    33    34    1
    20    33    30   ar
    21     7     6   ar
    22     7    10   ar
    23    21    10   ar
    24    21    23   ar
    25    29    30   ar
    26    29    26   ar
    27     6     4   ar
    28    10     9   ar
    29    30    28   ar
    30    25     1    1
    31     1     2   ar
    32    23    26    1
    33    23    22   ar
    34    26    27   ar
    35     4     2   ar
    36     4     8   ar
    37    28    42    1
    38    28    27   ar
    39     9     8   ar
    40     9    22   ar
    41     2     5    1
    42     8    11    1
    43    11    17    1
    44    19    17    1
    45    17    20    1
    46    17    18    1
