@<TRIPOS>MOLECULE
/home/robert/research/aromodel/code/impropers-ptb7out/XYZ_Files/Dimethoxy_Benzodithiophene_Phi_25_Theta_0_Methylcarbonyl_3_Fluoro_Thienothiophene.xyz
 42 46 0 0 0
SMALL
GASTEIGER

@<TRIPOS>ATOM
      1 C           0.7012   -8.4889    0.3182 C.ar    1  UNL1       -0.0230
      2 C           0.6167   -7.6168   -0.7573 C.ar    1  UNL1       -0.0433
      3 S           0.6409   -7.6117    1.8664 S.2     1  UNL1       -0.0929
      4 C           0.4967   -6.2453   -0.3809 C.ar    1  UNL1        0.0355
      5 H           0.6391   -7.9406   -1.8056 H       1  UNL1        0.0630
      6 C           0.4784   -6.0541    1.0456 C.ar    1  UNL1        0.0651
      7 C           0.3911   -4.7711    1.6081 C.ar    1  UNL1        0.1427
      8 C           0.4234   -5.1455   -1.2829 C.ar    1  UNL1        0.1427
      9 C           0.3403   -3.8598   -0.7202 C.ar    1  UNL1        0.0657
     10 C           0.3192   -3.6701    0.7079 C.ar    1  UNL1        0.0361
     11 O           0.4247   -5.4836   -2.6024 O.3     1  UNL1       -0.4933
     12 O           0.3920   -4.4418    2.9335 O.3     1  UNL1       -0.4933
     13 C          -0.1356   -5.3613    3.8820 C.3     1  UNL1        0.0789
     14 H          -0.2580   -4.7964    4.8257 H       1  UNL1        0.0660
     15 H           0.5532   -6.2135    4.0710 H       1  UNL1        0.0660
     16 H          -1.1238   -5.7571    3.5622 H       1  UNL1        0.0660
     17 C           0.7790   -4.5216   -3.5883 C.3     1  UNL1        0.0789
     18 H           0.8961   -5.0810   -4.5357 H       1  UNL1        0.0660
     19 H           1.7381   -4.0169   -3.3430 H       1  UNL1        0.0660
     20 H          -0.0138   -3.7550   -3.7282 H       1  UNL1        0.0660
     21 C           0.2014   -2.2978    1.0807 C.ar    1  UNL1       -0.0350
     22 S           0.1901   -2.2987   -1.5427 S.2     1  UNL1       -0.0839
     23 C           0.1251   -1.4297    0.0000 C.ar    1  UNL1        0.0284
     24 H           0.1760   -1.9703    2.1276 H       1  UNL1        0.0636
     25 H           0.8003   -9.5807    0.3206 H       1  UNL1        0.0694
     26 C           0.0000    0.0000    0.0000 C.ar    1  UNL1        0.0403
     27 S           0.3099    0.8500    1.5075 S.2     1  UNL1       -0.0943
     28 C           0.8470    2.3280    0.7189 C.ar    1  UNL1       -0.0127
     29 C           0.3100    0.8496   -1.0679 C.ar    1  UNL1        0.0382
     30 C           0.7833    2.1567   -0.6864 C.ar    1  UNL1        0.0329
     31 S           0.2294    0.6198   -2.8055 S.2     1  UNL1       -0.0778
     32 C           0.8233    2.2677   -3.0545 C.ar    1  UNL1        0.1325
     33 C           1.0633    2.9341   -1.8626 C.ar    1  UNL1        0.1527
     34 F           1.5159    4.1918   -1.8191 F       1  UNL1       -0.2034
     35 C           0.9783    2.6881   -4.4561 C.2     1  UNL1        0.3485
     36 O           0.7225    1.9619   -5.4065 O.2     1  UNL1       -0.2443
     37 O           1.4332    3.9597   -4.5692 O.3     1  UNL1       -0.4640
     38 C           1.6075    4.4231   -5.9162 C.3     1  UNL1        0.0820
     39 H           1.9775    5.4602   -5.8331 H       1  UNL1        0.0661
     40 H           0.6474    4.3966   -6.4702 H       1  UNL1        0.0661
     41 H           2.3395    3.7918   -6.4593 H       1  UNL1        0.0661
     42 H           1.1618    3.1970    1.3065 H       1  UNL1        0.0701
@<TRIPOS>BOND
     1    40    38    1
     2    41    38    1
     3    38    39    1
     4    38    37    1
     5    36    35    2
     6    37    35    1
     7    18    17    1
     8    35    32    1
     9    20    17    1
    10    17    19    1
    11    17    11    1
    12    32    31   ar
    13    32    33   ar
    14    31    29   ar
    15    11     8    1
    16    33    34    1
    17    33    30   ar
    18     5     2    1
    19    22     9   ar
    20    22    23   ar
    21     8     9   ar
    22     8     4   ar
    23    29    30   ar
    24    29    26   ar
    25     2     4   ar
    26     2     1   ar
    27     9    10   ar
    28    30    28   ar
    29     4     6   ar
    30    23    26    1
    31    23    21   ar
    32    26    27   ar
    33     1    25    1
    34     1     3   ar
    35    10    21   ar
    36    10     7   ar
    37    28    42    1
    38    28    27   ar
    39     6     7   ar
    40     6     3   ar
    41    21    24    1
    42     7    12    1
    43    12    13    1
    44    16    13    1
    45    13    15    1
    46    13    14    1
