@<TRIPOS>MOLECULE
/home/robert/research/aromodel/code/impropers-ptb7out/XYZ_Files/Dimethoxy_Benzodithiophene_Phi_40_Theta_0_Methylcarbonyl_3_Fluoro_Thienothiophene.xyz
 42 46 0 0 0
SMALL
GASTEIGER

@<TRIPOS>ATOM
      1 C           1.4384   -8.3955    0.3182 C.ar    1  UNL1       -0.0230
      2 C           1.2782   -7.5341   -0.7573 C.ar    1  UNL1       -0.0433
      3 S           1.3019   -7.5269    1.8664 S.2     1  UNL1       -0.0929
      4 C           1.0391   -6.1782   -0.3809 C.ar    1  UNL1        0.0355
      5 H           1.3288   -7.8547   -1.8056 H       1  UNL1        0.0630
      6 C           1.0042   -5.9893    1.0456 C.ar    1  UNL1        0.0651
      7 C           0.8055   -4.7189    1.6081 C.ar    1  UNL1        0.1427
      8 C           0.8703   -5.0890   -1.2829 C.ar    1  UNL1        0.1427
      9 C           0.6754   -3.8155   -0.7202 C.ar    1  UNL1        0.0654
     10 C           0.6378   -3.6283    0.7079 C.ar    1  UNL1        0.0358
     11 O           0.9010   -5.4257   -2.6024 O.3     1  UNL1       -0.4933
     12 O           0.7776   -4.3907    2.9335 O.3     1  UNL1       -0.4933
     13 C           0.3321   -5.3527    3.8820 C.3     1  UNL1        0.0789
     14 H           0.1610   -4.8007    4.8257 H       1  UNL1        0.0660
     15 H           1.0927   -6.1417    4.0710 H       1  UNL1        0.0660
     16 H          -0.6177   -5.8331    3.5622 H       1  UNL1        0.0660
     17 C           1.1701   -4.4365   -3.5883 C.3     1  UNL1        0.0789
     18 H           1.3355   -4.9835   -4.5357 H       1  UNL1        0.0660
     19 H           2.0816   -3.8502   -3.3430 H       1  UNL1        0.0660
     20 H           0.3135   -3.7419   -3.7282 H       1  UNL1        0.0660
     21 C           0.4009   -2.2715    1.0807 C.ar    1  UNL1       -0.0384
     22 S           0.3898   -2.2734   -1.5427 S.2     1  UNL1       -0.0876
     23 C           0.2492   -1.4134    0.0000 C.ar    1  UNL1        0.0141
     24 H           0.3471   -1.9475    2.1276 H       1  UNL1        0.0633
     25 H           1.6323   -9.4745    0.3206 H       1  UNL1        0.0694
     26 C           0.0000    0.0000    0.0000 C.3     1  UNL1        0.1030
     27 S           0.4528    0.7833    1.5075 S.3     1  UNL1       -0.1318
     28 C           1.2384    2.1456    0.7189 C.3     1  UNL1        0.0510
     29 C           0.4529    0.7829   -1.0679 C.ar    1  UNL1        0.0206
     30 C           1.1459    1.9880   -0.6864 C.ar    1  UNL1        0.0149
     31 S           0.3336    0.5705   -2.8055 S.2     1  UNL1       -0.0818
     32 C           1.2046    2.0903   -3.0545 C.ar    1  UNL1        0.1319
     33 C           1.5566    2.7049   -1.8626 C.ar    1  UNL1        0.1490
     34 F           2.2208    3.8649   -1.8191 F       1  UNL1       -0.2037
     35 C           1.4303    2.4773   -4.4561 C.2     1  UNL1        0.3485
     36 O           1.0522    1.8066   -5.4065 O.2     1  UNL1       -0.2443
     37 O           2.0991    3.6507   -4.5692 O.3     1  UNL1       -0.4640
     38 C           2.3511    4.0768   -5.9162 C.3     1  UNL1        0.0820
     39 H           2.8956    5.0338   -5.8331 H       1  UNL1        0.0661
     40 H           1.4010    4.2174   -6.4702 H       1  UNL1        0.0661
     41 H           2.9624    3.3280   -6.4593 H       1  UNL1        0.0661
     42 H           1.6993    2.9467    1.3065 H       1  UNL1        0.0477
@<TRIPOS>BOND
     1    40    38    1
     2    41    38    1
     3    38    39    1
     4    38    37    1
     5    36    35    2
     6    37    35    1
     7    18    17    1
     8    35    32    1
     9    20    17    1
    10    17    19    1
    11    17    11    1
    12    32    31   ar
    13    32    33   ar
    14    31    29   ar
    15    11     8    1
    16    33    34    1
    17    33    30   ar
    18     5     2    1
    19    22     9   ar
    20    22    23   ar
    21     8     9   ar
    22     8     4   ar
    23    29    30   ar
    24    29    26    1
    25     2     4   ar
    26     2     1   ar
    27     9    10   ar
    28    30    28    1
    29     4     6   ar
    30    23    26    1
    31    23    21   ar
    32    26    27    1
    33     1    25    1
    34     1     3   ar
    35    10    21   ar
    36    10     7   ar
    37    28    42    1
    38    28    27    1
    39     6     7   ar
    40     6     3   ar
    41    21    24    1
    42     7    12    1
    43    12    13    1
    44    16    13    1
    45    13    15    1
    46    13    14    1
