@<TRIPOS>MOLECULE
/home/robert/research/aromodel/code/impropers-ptb7out/XYZ_Files/Dimethoxy_Benzodithiophene_Phi_30_Theta_320_Methylcarbonyl_3_Fluoro_Thienothiophene.xyz
 42 46 0 0 0
SMALL
GASTEIGER

@<TRIPOS>ATOM
      1 C           0.1729   -8.5177    0.2704 C.ar    1  UNL1       -0.0230
      2 C          -0.5247   -7.6416   -0.5484 C.ar    1  UNL1       -0.0433
      3 S           1.1806   -7.6386    1.4458 S.2     1  UNL1       -0.0929
      4 C          -0.2827   -6.2648   -0.2600 C.ar    1  UNL1        0.0355
      5 H          -1.2030   -7.9661   -1.3476 H       1  UNL1        0.0630
      6 C           0.6330   -6.0727    0.8339 C.ar    1  UNL1        0.0651
      7 C           1.0136   -4.7870    1.2487 C.ar    1  UNL1        0.1427
      8 C          -0.8451   -5.1628   -0.9657 C.ar    1  UNL1        0.1427
      9 C          -0.4609   -3.8748   -0.5534 C.ar    1  UNL1        0.0657
     10 C           0.4535   -3.6840    0.5435 C.ar    1  UNL1        0.0361
     11 O          -1.7148   -5.4998   -1.9583 O.3     1  UNL1       -0.4933
     12 O           1.8882   -4.4591    2.2451 O.3     1  UNL1       -0.4933
     13 C           2.0338   -5.3291    3.3610 C.3     1  UNL1        0.0789
     14 H           2.5848   -4.7557    4.1307 H       1  UNL1        0.0660
     15 H           2.6241   -6.2381    3.1124 H       1  UNL1        0.0660
     16 H           1.0477   -5.6373    3.7709 H       1  UNL1        0.0660
     17 C          -2.0139   -4.5723   -2.9943 C.3     1  UNL1        0.0789
     18 H          -2.5709   -5.1397   -3.7637 H       1  UNL1        0.0660
     19 H          -1.0906   -4.1531   -3.4488 H       1  UNL1        0.0660
     20 H          -2.6577   -3.7395   -2.6368 H       1  UNL1        0.0660
     21 C           0.6949   -2.3067    0.8277 C.ar    1  UNL1       -0.0350
     22 S          -1.0000   -2.3065   -1.1747 S.2     1  UNL1       -0.0839
     23 C          -0.0000   -1.4352   -0.0000 C.ar    1  UNL1        0.0284
     24 H           1.3704   -1.9781    1.6275 H       1  UNL1        0.0636
     25 H           0.1771   -9.6140    0.2698 H       1  UNL1        0.0694
     26 C           0.0000    0.0000    0.0000 C.ar    1  UNL1        0.0403
     27 S           0.4528    0.7833    1.5075 S.2     1  UNL1       -0.0943
     28 C           1.2384    2.1456    0.7189 C.ar    1  UNL1       -0.0127
     29 C           0.4529    0.7829   -1.0679 C.ar    1  UNL1        0.0382
     30 C           1.1459    1.9880   -0.6864 C.ar    1  UNL1        0.0329
     31 S           0.3336    0.5705   -2.8055 S.2     1  UNL1       -0.0778
     32 C           1.2046    2.0903   -3.0545 C.ar    1  UNL1        0.1325
     33 C           1.5566    2.7049   -1.8626 C.ar    1  UNL1        0.1527
     34 F           2.2208    3.8649   -1.8191 F       1  UNL1       -0.2034
     35 C           1.4303    2.4773   -4.4561 C.2     1  UNL1        0.3485
     36 O           1.0522    1.8066   -5.4065 O.2     1  UNL1       -0.2443
     37 O           2.0991    3.6507   -4.5692 O.3     1  UNL1       -0.4640
     38 C           2.3511    4.0768   -5.9162 C.3     1  UNL1        0.0820
     39 H           2.8956    5.0338   -5.8331 H       1  UNL1        0.0661
     40 H           1.4010    4.2174   -6.4702 H       1  UNL1        0.0661
     41 H           2.9624    3.3280   -6.4593 H       1  UNL1        0.0661
     42 H           1.6993    2.9467    1.3065 H       1  UNL1        0.0701
@<TRIPOS>BOND
     1    40    38    1
     2    41    38    1
     3    38    39    1
     4    38    37    1
     5    36    35    2
     6    37    35    1
     7    35    32    1
     8    18    17    1
     9    19    17    1
    10    32    31   ar
    11    32    33   ar
    12    17    20    1
    13    17    11    1
    14    31    29   ar
    15    11     8    1
    16    33    34    1
    17    33    30   ar
    18     5     2    1
    19    22     9   ar
    20    22    23   ar
    21    29    30   ar
    22    29    26   ar
    23     8     9   ar
    24     8     4   ar
    25    30    28   ar
    26     9    10   ar
    27     2     4   ar
    28     2     1   ar
    29     4     6   ar
    30    26    23    1
    31    26    27   ar
    32    23    21   ar
    33    25     1    1
    34     1     3   ar
    35    10    21   ar
    36    10     7   ar
    37    28    42    1
    38    28    27   ar
    39    21    24    1
    40     6     7   ar
    41     6     3   ar
    42     7    12    1
    43    12    13    1
    44    15    13    1
    45    13    16    1
    46    13    14    1
