@<TRIPOS>MOLECULE
/home/robert/research/aromodel/code/impropers-ptb7out/XYZ_Files/Dimethoxy_Benzodithiophene_Phi_50_Theta_260_Methylcarbonyl_3_Fluoro_Thienothiophene.xyz
 42 46 0 0 0
SMALL
GASTEIGER

@<TRIPOS>ATOM
      1 C           0.3206   -8.5177   -0.0146 C.ar    1  UNL1       -0.0230
      2 C          -0.7372   -7.6416    0.1802 C.ar    1  UNL1       -0.0433
      3 S           1.8424   -7.6386   -0.2996 S.2     1  UNL1       -0.0929
      4 C          -0.3665   -6.2648    0.1149 C.ar    1  UNL1        0.0355
      5 H          -1.7685   -7.9661    0.3681 H       1  UNL1        0.0630
      6 C           1.0386   -6.0727   -0.1312 C.ar    1  UNL1        0.0651
      7 C           1.5882   -4.7870   -0.2534 C.ar    1  UNL1        0.1427
      8 C          -1.2588   -5.1628    0.2490 C.ar    1  UNL1        0.1427
      9 C          -0.7097   -3.8748    0.1225 C.ar    1  UNL1        0.0654
     10 C           0.6974   -3.6840   -0.1210 C.ar    1  UNL1        0.0358
     11 O          -2.5533   -5.4998    0.5059 O.3     1  UNL1       -0.4933
     12 O           2.8884   -4.4591   -0.5127 O.3     1  UNL1       -0.4933
     13 C           3.9276   -5.3291   -0.0809 C.3     1  UNL1        0.0789
     14 H           4.8697   -4.7557   -0.1732 H       1  UNL1        0.0660
     15 H           4.0075   -6.2381   -0.7164 H       1  UNL1        0.0660
     16 H           3.7896   -5.6373    0.9781 H       1  UNL1        0.0660
     17 C          -3.6001   -4.5723    0.2469 C.3     1  UNL1        0.0789
     18 H          -4.5449   -5.1397    0.3446 H       1  UNL1        0.0660
     19 H          -3.5321   -4.1531   -0.7799 H       1  UNL1        0.0660
     20 H          -3.6124   -3.7395    0.9833 H       1  UNL1        0.0660
     21 C           1.0642   -2.3067   -0.1880 C.ar    1  UNL1       -0.0384
     22 S          -1.5174   -2.3065    0.2786 S.2     1  UNL1       -0.0876
     23 C           0.0000   -1.4352    0.0000 C.ar    1  UNL1        0.0141
     24 H           2.0947   -1.9781   -0.3730 H       1  UNL1        0.0633
     25 H           0.3222   -9.6140   -0.0185 H       1  UNL1        0.0694
     26 C           0.0000    0.0000    0.0000 C.3     1  UNL1        0.1030
     27 S           0.6934    0.5812    1.5075 S.3     1  UNL1       -0.1318
     28 C           1.8975    1.5926    0.7189 C.3     1  UNL1        0.0510
     29 C           0.6933    0.5808   -1.0679 C.ar    1  UNL1        0.0206
     30 C           1.7568    1.4761   -0.6864 C.ar    1  UNL1        0.0149
     31 S           0.5086    0.4220   -2.8055 S.2     1  UNL1       -0.0818
     32 C           1.8469    1.5522   -3.0545 C.ar    1  UNL1        0.1319
     33 C           2.3879    2.0094   -1.8626 C.ar    1  UNL1        0.1490
     34 F           3.4087    2.8723   -1.8191 F       1  UNL1       -0.2037
     35 C           2.1913    1.8388   -4.4561 C.2     1  UNL1        0.3485
     36 O           1.6067    1.3378   -5.4065 O.2     1  UNL1       -0.2443
     37 O           3.2211    2.7126   -4.5692 O.3     1  UNL1       -0.4640
     38 C           3.6037    3.0268   -5.9162 C.3     1  UNL1        0.0820
     39 H           4.4426    3.7399   -5.8331 H       1  UNL1        0.0661
     40 H           2.7590    3.4839   -6.4702 H       1  UNL1        0.0661
     41 H           3.9220    2.1141   -6.4593 H       1  UNL1        0.0661
     42 H           2.6046    2.1878    1.3065 H       1  UNL1        0.0477
@<TRIPOS>BOND
     1    40    38    1
     2    41    38    1
     3    38    39    1
     4    38    37    1
     5    36    35    2
     6    37    35    1
     7    35    32    1
     8    32    31   ar
     9    32    33   ar
    10    31    29   ar
    11    33    34    1
    12    33    30   ar
    13    29    30   ar
    14    29    26    1
    15    19    17    1
    16    15    13    1
    17    30    28    1
    18    12     7    1
    19    12    13    1
    20    24    21    1
    21     3     6   ar
    22     3     1   ar
    23     7     6   ar
    24     7    10   ar
    25    21    10   ar
    26    21    23   ar
    27    14    13    1
    28     6     4   ar
    29    10     9   ar
    30    13    16    1
    31    25     1    1
    32     1     2   ar
    33    23    26    1
    34    23    22   ar
    35    26    27    1
    36     4     2   ar
    37     4     8   ar
    38     9     8   ar
    39     9    22   ar
    40     2     5    1
    41    17    18    1
    42    17    11    1
    43    17    20    1
    44     8    11    1
    45    28    42    1
    46    28    27    1
