@<TRIPOS>MOLECULE
/home/robert/research/aromodel/code/impropers-ptb7out/XYZ_Files/Dimethoxy_Benzodithiophene_Phi_40_Theta_130_Methylcarbonyl_3_Fluoro_Thienothiophene.xyz
 42 46 0 0 0
SMALL
GASTEIGER

@<TRIPOS>ATOM
      1 C          -0.2172   -8.5177   -0.2362 C.ar    1  UNL1       -0.0230
      2 C           0.6119   -7.6416    0.4489 C.ar    1  UNL1       -0.0433
      3 S          -1.4137   -7.6386   -1.2188 S.2     1  UNL1       -0.0929
      4 C           0.3236   -6.2648    0.2069 C.ar    1  UNL1        0.0355
      5 H           1.4187   -7.9661    1.1182 H       1  UNL1        0.0630
      6 C          -0.7682   -6.0727   -0.7113 C.ar    1  UNL1        0.0651
      7 C          -1.2150   -4.7870   -1.0537 C.ar    1  UNL1        0.1427
      8 C           0.9999   -5.1628    0.8043 C.ar    1  UNL1        0.1427
      9 C           0.5500   -3.8748    0.4649 C.ar    1  UNL1        0.0654
     10 C          -0.5410   -3.6840   -0.4565 C.ar    1  UNL1        0.0358
     11 O           2.0288   -5.4998    1.6308 O.3     1  UNL1       -0.4933
     12 O          -2.2494   -4.4591   -1.8831 O.3     1  UNL1       -0.4933
     13 C          -2.5866   -5.3291   -2.9568 C.3     1  UNL1        0.0789
     14 H          -3.2628   -4.7557   -3.6191 H       1  UNL1        0.0660
     15 H          -3.1247   -6.2381   -2.6094 H       1  UNL1        0.0660
     16 H          -1.6866   -5.6373   -3.5317 H       1  UNL1        0.0660
     17 C           2.5033   -4.5723    2.5991 C.3     1  UNL1        0.0789
     18 H           3.1854   -5.1397    3.2601 H       1  UNL1        0.0660
     19 H           1.6729   -4.1531    3.2070 H       1  UNL1        0.0660
     20 H           3.0752   -3.7395    2.1352 H       1  UNL1        0.0660
     21 C          -0.8281   -2.3067   -0.6944 C.ar    1  UNL1       -0.0384
     22 S           1.1888   -2.3065    0.9833 S.2     1  UNL1       -0.0876
     23 C          -0.0000   -1.4352   -0.0000 C.ar    1  UNL1        0.0141
     24 H          -1.6322   -1.9781   -1.3649 H       1  UNL1        0.0633
     25 H          -0.2213   -9.6140   -0.2350 H       1  UNL1        0.0694
     26 C           0.0000    0.0000    0.0000 C.3     1  UNL1        0.1030
     27 S           0.5819    0.6928    1.5075 S.3     1  UNL1       -0.1318
     28 C           1.5922    1.8979    0.7189 C.3     1  UNL1        0.0510
     29 C           0.5819    0.6924   -1.0679 C.ar    1  UNL1        0.0206
     30 C           1.4737    1.7588   -0.6864 C.ar    1  UNL1        0.0149
     31 S           0.4276    0.5039   -2.8055 S.2     1  UNL1       -0.0818
     32 C           1.5493    1.8494   -3.0545 C.ar    1  UNL1        0.1319
     33 C           2.0027    2.3935   -1.8626 C.ar    1  UNL1        0.1490
     34 F           2.8582    3.4205   -1.8191 F       1  UNL1       -0.2037
     35 C           1.8387    2.1913   -4.4561 C.2     1  UNL1        0.3485
     36 O           1.3500    1.5965   -5.4065 O.2     1  UNL1       -0.2443
     37 O           2.7011    3.2307   -4.5692 O.3     1  UNL1       -0.4640
     38 C           3.0233    3.6066   -5.9162 C.3     1  UNL1        0.0820
     39 H           3.7257    4.4545   -5.8331 H       1  UNL1        0.0661
     40 H           2.1121    3.9100   -6.4702 H       1  UNL1        0.0661
     41 H           3.4953    2.7630   -6.4593 H       1  UNL1        0.0661
     42 H           2.1852    2.6068    1.3065 H       1  UNL1        0.0477
@<TRIPOS>BOND
     1    40    38    1
     2    41    38    1
     3    38    39    1
     4    38    37    1
     5    36    35    2
     6    37    35    1
     7    35    32    1
     8    14    13    1
     9    16    13    1
    10    32    31   ar
    11    32    33   ar
    12    13    15    1
    13    13    12    1
    14    31    29   ar
    15    12     7    1
    16    33    34    1
    17    33    30   ar
    18    24    21    1
    19     3     6   ar
    20     3     1   ar
    21    29    30   ar
    22    29    26    1
    23     7     6   ar
    24     7    10   ar
    25     6     4   ar
    26    21    10   ar
    27    21    23   ar
    28    30    28    1
    29    10     9   ar
    30     1    25    1
    31     1     2   ar
    32    23    26    1
    33    23    22   ar
    34    26    27    1
    35     4     2   ar
    36     4     8   ar
    37     2     5    1
    38     9     8   ar
    39     9    22   ar
    40    28    42    1
    41    28    27    1
    42     8    11    1
    43    11    17    1
    44    20    17    1
    45    17    19    1
    46    17    18    1
