@<TRIPOS>MOLECULE
/home/robert/research/aromodel/code/impropers-ptb7out/XYZ_Files/Dimethoxy_Benzodithiophene_Phi_50_Theta_40_Methylcarbonyl_3_Fluoro_Thienothiophene.xyz
 42 46 0 0 0
SMALL
GASTEIGER

@<TRIPOS>ATOM
      1 C          -0.2362   -8.5177    0.2172 C.ar    1  UNL1       -0.0230
      2 C           0.4489   -7.6416   -0.6119 C.ar    1  UNL1       -0.0433
      3 S          -1.2188   -7.6386    1.4137 S.2     1  UNL1       -0.0929
      4 C           0.2069   -6.2648   -0.3236 C.ar    1  UNL1        0.0355
      5 H           1.1182   -7.9661   -1.4187 H       1  UNL1        0.0630
      6 C          -0.7113   -6.0727    0.7682 C.ar    1  UNL1        0.0651
      7 C          -1.0537   -4.7870    1.2150 C.ar    1  UNL1        0.1427
      8 C           0.8043   -5.1628   -0.9999 C.ar    1  UNL1        0.1427
      9 C           0.4649   -3.8748   -0.5500 C.ar    1  UNL1        0.0654
     10 C          -0.4565   -3.6840    0.5410 C.ar    1  UNL1        0.0358
     11 O           1.6308   -5.4998   -2.0288 O.3     1  UNL1       -0.4933
     12 O          -1.8831   -4.4591    2.2494 O.3     1  UNL1       -0.4933
     13 C          -2.9568   -5.3291    2.5866 C.3     1  UNL1        0.0789
     14 H          -3.6191   -4.7557    3.2628 H       1  UNL1        0.0660
     15 H          -2.6094   -6.2381    3.1247 H       1  UNL1        0.0660
     16 H          -3.5317   -5.6373    1.6866 H       1  UNL1        0.0660
     17 C           2.5991   -4.5723   -2.5033 C.3     1  UNL1        0.0789
     18 H           3.2601   -5.1397   -3.1854 H       1  UNL1        0.0660
     19 H           3.2070   -4.1531   -1.6729 H       1  UNL1        0.0660
     20 H           2.1352   -3.7395   -3.0752 H       1  UNL1        0.0660
     21 C          -0.6944   -2.3067    0.8281 C.ar    1  UNL1       -0.0384
     22 S           0.9833   -2.3065   -1.1888 S.2     1  UNL1       -0.0876
     23 C           0.0000   -1.4352    0.0000 C.ar    1  UNL1        0.0141
     24 H          -1.3649   -1.9781    1.6322 H       1  UNL1        0.0633
     25 H          -0.2350   -9.6140    0.2213 H       1  UNL1        0.0694
     26 C           0.0000    0.0000    0.0000 C.3     1  UNL1        0.1030
     27 S           0.6934    0.5812    1.5075 S.3     1  UNL1       -0.1318
     28 C           1.8975    1.5926    0.7189 C.3     1  UNL1        0.0510
     29 C           0.6933    0.5808   -1.0679 C.ar    1  UNL1        0.0206
     30 C           1.7568    1.4761   -0.6864 C.ar    1  UNL1        0.0149
     31 S           0.5086    0.4220   -2.8055 S.2     1  UNL1       -0.0818
     32 C           1.8469    1.5522   -3.0545 C.ar    1  UNL1        0.1319
     33 C           2.3879    2.0094   -1.8626 C.ar    1  UNL1        0.1490
     34 F           3.4087    2.8723   -1.8191 F       1  UNL1       -0.2037
     35 C           2.1913    1.8388   -4.4561 C.2     1  UNL1        0.3485
     36 O           1.6067    1.3378   -5.4065 O.2     1  UNL1       -0.2443
     37 O           3.2211    2.7126   -4.5692 O.3     1  UNL1       -0.4640
     38 C           3.6037    3.0268   -5.9162 C.3     1  UNL1        0.0820
     39 H           4.4426    3.7399   -5.8331 H       1  UNL1        0.0661
     40 H           2.7590    3.4839   -6.4702 H       1  UNL1        0.0661
     41 H           3.9220    2.1141   -6.4593 H       1  UNL1        0.0661
     42 H           2.6046    2.1878    1.3065 H       1  UNL1        0.0477
@<TRIPOS>BOND
     1    40    38    1
     2    41    38    1
     3    38    39    1
     4    38    37    1
     5    36    35    2
     6    37    35    1
     7    35    32    1
     8    18    17    1
     9    20    17    1
    10    32    31   ar
    11    32    33   ar
    12    31    29   ar
    13    17    11    1
    14    17    19    1
    15    11     8    1
    16    33    34    1
    17    33    30   ar
    18     5     2    1
    19    22     9   ar
    20    22    23   ar
    21    29    30   ar
    22    29    26    1
    23     8     9   ar
    24     8     4   ar
    25    30    28    1
    26     2     4   ar
    27     2     1   ar
    28     9    10   ar
    29     4     6   ar
    30    23    26    1
    31    23    21   ar
    32    26    27    1
    33     1    25    1
    34     1     3   ar
    35    10    21   ar
    36    10     7   ar
    37    28    42    1
    38    28    27    1
    39     6     7   ar
    40     6     3   ar
    41    21    24    1
    42     7    12    1
    43    16    13    1
    44    12    13    1
    45    13    15    1
    46    13    14    1
