@<TRIPOS>MOLECULE
/home/robert/research/aromodel/code/impropers-ptb7out/XYZ_Files/Dimethoxy_Benzodithiophene_Phi_50_Theta_240_Methylcarbonyl_3_Fluoro_Thienothiophene.xyz
 42 46 0 0 0
SMALL
GASTEIGER

@<TRIPOS>ATOM
      1 C           0.2963   -8.5177   -0.1233 C.ar    1  UNL1       -0.0230
      2 C          -0.6311   -7.6416    0.4215 C.ar    1  UNL1       -0.0433
      3 S           1.6288   -7.6386   -0.9116 S.2     1  UNL1       -0.0929
      4 C          -0.3051   -6.2648    0.2333 C.ar    1  UNL1        0.0355
      5 H          -1.5360   -7.9661    0.9507 H       1  UNL1        0.0630
      6 C           0.9311   -6.0727   -0.4786 C.ar    1  UNL1        0.0651
      7 C           1.4057   -4.7870   -0.7813 C.ar    1  UNL1        0.1427
      8 C          -1.0977   -5.1628    0.6645 C.ar    1  UNL1        0.1427
      9 C          -0.6250   -3.8748    0.3579 C.ar    1  UNL1        0.0654
     10 C           0.6140   -3.6840   -0.3523 C.ar    1  UNL1        0.0358
     11 O          -2.2263   -5.4998    1.3487 O.3     1  UNL1       -0.4933
     12 O           2.5388   -4.4591   -1.4697 O.3     1  UNL1       -0.4933
     13 C           3.6631   -5.3291   -1.4193 C.3     1  UNL1        0.0789
     14 H           4.5168   -4.7557   -1.8282 H       1  UNL1        0.0660
     15 H           3.5208   -6.2381   -2.0438 H       1  UNL1        0.0660
     16 H           3.8955   -5.6373   -0.3770 H       1  UNL1        0.0660
     17 C          -3.2985   -4.5723    1.4634 C.3     1  UNL1        0.0789
     18 H          -4.1529   -5.1397    1.8782 H       1  UNL1        0.0660
     19 H          -3.5858   -4.1531    0.4752 H       1  UNL1        0.0660
     20 H          -3.0582   -3.7395    2.1595 H       1  UNL1        0.0660
     21 C           0.9358   -2.3067   -0.5407 C.ar    1  UNL1       -0.0384
     22 S          -1.3305   -2.3065    0.7808 S.2     1  UNL1       -0.0876
     23 C           0.0000   -1.4352    0.0000 C.ar    1  UNL1        0.0141
     24 H           1.8408   -1.9781   -1.0669 H       1  UNL1        0.0633
     25 H           0.2965   -9.6140   -0.1276 H       1  UNL1        0.0694
     26 C           0.0000    0.0000    0.0000 C.3     1  UNL1        0.1030
     27 S           0.6934    0.5812    1.5075 S.3     1  UNL1       -0.1318
     28 C           1.8975    1.5926    0.7189 C.3     1  UNL1        0.0510
     29 C           0.6933    0.5808   -1.0679 C.ar    1  UNL1        0.0206
     30 C           1.7568    1.4761   -0.6864 C.ar    1  UNL1        0.0149
     31 S           0.5086    0.4220   -2.8055 S.2     1  UNL1       -0.0818
     32 C           1.8469    1.5522   -3.0545 C.ar    1  UNL1        0.1319
     33 C           2.3879    2.0094   -1.8626 C.ar    1  UNL1        0.1490
     34 F           3.4087    2.8723   -1.8191 F       1  UNL1       -0.2037
     35 C           2.1913    1.8388   -4.4561 C.2     1  UNL1        0.3485
     36 O           1.6067    1.3378   -5.4065 O.2     1  UNL1       -0.2443
     37 O           3.2211    2.7126   -4.5692 O.3     1  UNL1       -0.4640
     38 C           3.6037    3.0268   -5.9162 C.3     1  UNL1        0.0820
     39 H           4.4426    3.7399   -5.8331 H       1  UNL1        0.0661
     40 H           2.7590    3.4839   -6.4702 H       1  UNL1        0.0661
     41 H           3.9220    2.1141   -6.4593 H       1  UNL1        0.0661
     42 H           2.6046    2.1878    1.3065 H       1  UNL1        0.0477
@<TRIPOS>BOND
     1    40    38    1
     2    41    38    1
     3    38    39    1
     4    38    37    1
     5    36    35    2
     6    37    35    1
     7    35    32    1
     8    32    31   ar
     9    32    33   ar
    10    31    29   ar
    11    15    13    1
    12    33    34    1
    13    33    30   ar
    14    14    13    1
    15    12    13    1
    16    12     7    1
    17    13    16    1
    18    29    30   ar
    19    29    26    1
    20    24    21    1
    21     3     6   ar
    22     3     1   ar
    23     7     6   ar
    24     7    10   ar
    25    30    28    1
    26    21    10   ar
    27    21    23   ar
    28     6     4   ar
    29    10     9   ar
    30    25     1    1
    31     1     2   ar
    32    23    26    1
    33    23    22   ar
    34    26    27    1
    35     4     2   ar
    36     4     8   ar
    37     9     8   ar
    38     9    22   ar
    39     2     5    1
    40    19    17    1
    41     8    11    1
    42    28    42    1
    43    28    27    1
    44    11    17    1
    45    17    18    1
    46    17    20    1
