@<TRIPOS>MOLECULE
/home/robert/research/aromodel/code/impropers-ptb7out/XYZ_Files/Dimethoxy_Benzodithiophene_Phi_25_Theta_90_Methylcarbonyl_3_Fluoro_Thienothiophene.xyz
 42 46 0 0 0
SMALL
GASTEIGER

@<TRIPOS>ATOM
      1 C          -0.3182   -8.5177   -0.0413 C.ar    1  UNL1       -0.0230
      2 C           0.7573   -7.6416   -0.0495 C.ar    1  UNL1       -0.0433
      3 S          -1.8664   -7.6386   -0.0249 S.2     1  UNL1       -0.0929
      4 C           0.3809   -6.2648   -0.0495 C.ar    1  UNL1        0.0355
      5 H           1.8056   -7.9661   -0.0554 H       1  UNL1        0.0630
      6 C          -1.0456   -6.0727   -0.0511 C.ar    1  UNL1        0.0651
      7 C          -1.6081   -4.7870   -0.0262 C.ar    1  UNL1        0.1427
      8 C           1.2829   -5.1628   -0.0266 C.ar    1  UNL1        0.1427
      9 C           0.7202   -3.8748    0.0026 C.ar    1  UNL1        0.0657
     10 C          -0.7079   -3.6840   -0.0019 C.ar    1  UNL1        0.0361
     11 O           2.6024   -5.4998   -0.0549 O.3     1  UNL1       -0.4933
     12 O          -2.9335   -4.4591    0.0033 O.3     1  UNL1       -0.4933
     13 C          -3.8820   -5.3291   -0.6024 C.3     1  UNL1        0.0789
     14 H          -4.8257   -4.7557   -0.6751 H       1  UNL1        0.0660
     15 H          -4.0710   -6.2381    0.0096 H       1  UNL1        0.0660
     16 H          -3.5622   -5.6373   -1.6213 H       1  UNL1        0.0660
     17 C           3.5883   -4.5723    0.3819 C.3     1  UNL1        0.0789
     18 H           4.5357   -5.1397    0.4499 H       1  UNL1        0.0660
     19 H           3.3430   -4.1531    1.3814 H       1  UNL1        0.0660
     20 H           3.7282   -3.7395   -0.3410 H       1  UNL1        0.0660
     21 C          -1.0807   -2.3067    0.0003 C.ar    1  UNL1       -0.0350
     22 S           1.5427   -2.3065   -0.0109 S.2     1  UNL1       -0.0839
     23 C          -0.0000   -1.4352   -0.0000 C.ar    1  UNL1        0.0284
     24 H          -2.1276   -1.9781    0.0036 H       1  UNL1        0.0636
     25 H          -0.3206   -9.6140   -0.0378 H       1  UNL1        0.0694
     26 C           0.0000    0.0000    0.0000 C.ar    1  UNL1        0.0403
     27 S           0.3828    0.8198    1.5075 S.2     1  UNL1       -0.0943
     28 C           1.0467    2.2453    0.7189 C.ar    1  UNL1       -0.0127
     29 C           0.3829    0.8194   -1.0679 C.ar    1  UNL1        0.0382
     30 C           0.9683    2.0803   -0.6864 C.ar    1  UNL1        0.0329
     31 S           0.2826    0.5974   -2.8055 S.2     1  UNL1       -0.0778
     32 C           1.0178    2.1873   -3.0545 C.ar    1  UNL1        0.1325
     33 C           1.3150    2.8303   -1.8626 C.ar    1  UNL1        0.1527
     34 F           1.8755    4.0438   -1.8191 F       1  UNL1       -0.2034
     35 C           1.2089    2.5926   -4.4561 C.2     1  UNL1        0.3485
     36 O           0.8908    1.8915   -5.4065 O.2     1  UNL1       -0.2443
     37 O           1.7729    3.8197   -4.5692 O.3     1  UNL1       -0.4640
     38 C           1.9869    4.2662   -5.9162 C.3     1  UNL1        0.0820
     39 H           2.4458    5.2670   -5.8331 H       1  UNL1        0.0661
     40 H           1.0281    4.3234   -6.4702 H       1  UNL1        0.0661
     41 H           2.6611    3.5735   -6.4593 H       1  UNL1        0.0661
     42 H           1.4360    3.0836    1.3065 H       1  UNL1        0.0701
@<TRIPOS>BOND
     1    40    38    1
     2    41    38    1
     3    38    39    1
     4    38    37    1
     5    36    35    2
     6    37    35    1
     7    35    32    1
     8    32    31   ar
     9    32    33   ar
    10    31    29   ar
    11    33    34    1
    12    33    30   ar
    13    16    13    1
    14    29    30   ar
    15    29    26   ar
    16    30    28   ar
    17    14    13    1
    18    13    12    1
    19    13    15    1
    20    20    17    1
    21     5     2    1
    22    11     8    1
    23    11    17    1
    24     6     4   ar
    25     6     7   ar
    26     6     3   ar
    27     4     2   ar
    28     4     8   ar
    29     2     1   ar
    30     1    25    1
    31     1     3   ar
    32     8     9   ar
    33     7    10   ar
    34     7    12    1
    35    22    23   ar
    36    22     9   ar
    37    10    21   ar
    38    10     9   ar
    39    26    23    1
    40    26    27   ar
    41    23    21   ar
    42    21    24    1
    43    17    18    1
    44    17    19    1
    45    28    42    1
    46    28    27   ar
