@<TRIPOS>MOLECULE
/home/robert/research/aromodel/code/impropers-ptb7out/XYZ_Files/Dimethoxy_Benzodithiophene_Phi_40_Theta_60_Methylcarbonyl_3_Fluoro_Thienothiophene.xyz
 42 46 0 0 0
SMALL
GASTEIGER

@<TRIPOS>ATOM
      1 C          -0.2963   -8.5177    0.1233 C.ar    1  UNL1       -0.0230
      2 C           0.6311   -7.6416   -0.4215 C.ar    1  UNL1       -0.0433
      3 S          -1.6288   -7.6386    0.9116 S.2     1  UNL1       -0.0929
      4 C           0.3051   -6.2648   -0.2333 C.ar    1  UNL1        0.0355
      5 H           1.5360   -7.9661   -0.9507 H       1  UNL1        0.0630
      6 C          -0.9311   -6.0727    0.4786 C.ar    1  UNL1        0.0651
      7 C          -1.4057   -4.7870    0.7813 C.ar    1  UNL1        0.1427
      8 C           1.0977   -5.1628   -0.6645 C.ar    1  UNL1        0.1427
      9 C           0.6250   -3.8748   -0.3579 C.ar    1  UNL1        0.0654
     10 C          -0.6140   -3.6840    0.3523 C.ar    1  UNL1        0.0358
     11 O           2.2263   -5.4998   -1.3487 O.3     1  UNL1       -0.4933
     12 O          -2.5388   -4.4591    1.4697 O.3     1  UNL1       -0.4933
     13 C          -3.6631   -5.3291    1.4193 C.3     1  UNL1        0.0789
     14 H          -4.5168   -4.7557    1.8282 H       1  UNL1        0.0660
     15 H          -3.5208   -6.2381    2.0438 H       1  UNL1        0.0660
     16 H          -3.8955   -5.6373    0.3770 H       1  UNL1        0.0660
     17 C           3.2985   -4.5723   -1.4634 C.3     1  UNL1        0.0789
     18 H           4.1529   -5.1397   -1.8782 H       1  UNL1        0.0660
     19 H           3.5858   -4.1531   -0.4752 H       1  UNL1        0.0660
     20 H           3.0582   -3.7395   -2.1595 H       1  UNL1        0.0660
     21 C          -0.9358   -2.3067    0.5407 C.ar    1  UNL1       -0.0384
     22 S           1.3305   -2.3065   -0.7808 S.2     1  UNL1       -0.0876
     23 C          -0.0000   -1.4352   -0.0000 C.ar    1  UNL1        0.0141
     24 H          -1.8408   -1.9781    1.0669 H       1  UNL1        0.0633
     25 H          -0.2965   -9.6140    0.1276 H       1  UNL1        0.0694
     26 C           0.0000    0.0000    0.0000 C.3     1  UNL1        0.1030
     27 S           0.5819    0.6928    1.5075 S.3     1  UNL1       -0.1318
     28 C           1.5922    1.8979    0.7189 C.3     1  UNL1        0.0510
     29 C           0.5819    0.6924   -1.0679 C.ar    1  UNL1        0.0206
     30 C           1.4737    1.7588   -0.6864 C.ar    1  UNL1        0.0149
     31 S           0.4276    0.5039   -2.8055 S.2     1  UNL1       -0.0818
     32 C           1.5493    1.8494   -3.0545 C.ar    1  UNL1        0.1319
     33 C           2.0027    2.3935   -1.8626 C.ar    1  UNL1        0.1490
     34 F           2.8582    3.4205   -1.8191 F       1  UNL1       -0.2037
     35 C           1.8387    2.1913   -4.4561 C.2     1  UNL1        0.3485
     36 O           1.3500    1.5965   -5.4065 O.2     1  UNL1       -0.2443
     37 O           2.7011    3.2307   -4.5692 O.3     1  UNL1       -0.4640
     38 C           3.0233    3.6066   -5.9162 C.3     1  UNL1        0.0820
     39 H           3.7257    4.4545   -5.8331 H       1  UNL1        0.0661
     40 H           2.1121    3.9100   -6.4702 H       1  UNL1        0.0661
     41 H           3.4953    2.7630   -6.4593 H       1  UNL1        0.0661
     42 H           2.1852    2.6068    1.3065 H       1  UNL1        0.0477
@<TRIPOS>BOND
     1    40    38    1
     2    41    38    1
     3    38    39    1
     4    38    37    1
     5    36    35    2
     6    37    35    1
     7    35    32    1
     8    32    31   ar
     9    32    33   ar
    10    31    29   ar
    11    20    17    1
    12    18    17    1
    13    33    34    1
    14    33    30   ar
    15    17    11    1
    16    17    19    1
    17    11     8    1
    18    29    30   ar
    19    29    26    1
    20     5     2    1
    21    22     9   ar
    22    22    23   ar
    23    30    28    1
    24     8     9   ar
    25     8     4   ar
    26     2     4   ar
    27     2     1   ar
    28     9    10   ar
    29     4     6   ar
    30    26    23    1
    31    26    27    1
    32    23    21   ar
    33     1    25    1
    34     1     3   ar
    35    10    21   ar
    36    10     7   ar
    37    16    13    1
    38     6     7   ar
    39     6     3   ar
    40    21    24    1
    41    28    42    1
    42    28    27    1
    43     7    12    1
    44    13    12    1
    45    13    14    1
    46    13    15    1
