@<TRIPOS>MOLECULE
/home/robert/research/aromodel/code/impropers-ptb7out/XYZ_Files/Dimethoxy_Benzodithiophene_Phi_15_Theta_20_Methylcarbonyl_3_Fluoro_Thienothiophene.xyz
 42 46 0 0 0
SMALL
GASTEIGER

@<TRIPOS>ATOM
      1 C          -0.1477   -8.5177    0.2849 C.ar    1  UNL1       -0.0230
      2 C           0.2126   -7.6416   -0.7286 C.ar    1  UNL1       -0.0433
      3 S          -0.6618   -7.6386    1.7453 S.2     1  UNL1       -0.0929
      4 C           0.0838   -6.2648   -0.3748 C.ar    1  UNL1        0.0355
      5 H           0.5655   -7.9661   -1.7156 H       1  UNL1        0.0630
      6 C          -0.4057   -6.0727    0.9651 C.ar    1  UNL1        0.0651
      7 C          -0.5746   -4.7870    1.5021 C.ar    1  UNL1        0.1427
      8 C           0.4138   -5.1628   -1.2147 C.ar    1  UNL1        0.1427
      9 C           0.2487   -3.8748   -0.6759 C.ar    1  UNL1        0.0657
     10 C          -0.2439   -3.6840    0.6645 C.ar    1  UNL1        0.0361
     11 O           0.8385   -5.4998   -2.4642 O.3     1  UNL1       -0.4933
     12 O          -1.0002   -4.4591    2.7578 O.3     1  UNL1       -0.4933
     13 C          -1.8938   -5.3291    3.4419 C.3     1  UNL1        0.0789
     14 H          -2.2849   -4.7557    4.3038 H       1  UNL1        0.0660
     15 H          -1.3833   -6.2381    3.8287 H       1  UNL1        0.0660
     16 H          -2.7418   -5.6373    2.7928 H       1  UNL1        0.0660
     17 C           1.5862   -4.5723   -3.2412 C.3     1  UNL1        0.0789
     18 H           1.9740   -5.1397   -4.1083 H       1  UNL1        0.0660
     19 H           2.4414   -4.1531   -2.6689 H       1  UNL1        0.0660
     20 H           0.9547   -3.7395   -3.6200 H       1  UNL1        0.0660
     21 C          -0.3693   -2.3067    1.0157 C.ar    1  UNL1       -0.0350
     22 S           0.5174   -2.3065   -1.4534 S.2     1  UNL1       -0.0839
     23 C           0.0000   -1.4352    0.0000 C.ar    1  UNL1        0.0284
     24 H          -0.7243   -1.9781    2.0006 H       1  UNL1        0.0636
     25 H          -0.1451   -9.6140    0.2883 H       1  UNL1        0.0694
     26 C           0.0000    0.0000    0.0000 C.ar    1  UNL1        0.0403
     27 S           0.2346    0.8738    1.5075 S.2     1  UNL1       -0.0943
     28 C           0.6409    2.3930    0.7189 C.ar    1  UNL1       -0.0127
     29 C           0.2348    0.8734   -1.0679 C.ar    1  UNL1        0.0382
     30 C           0.5924    2.2168   -0.6864 C.ar    1  UNL1        0.0329
     31 S           0.1745    0.6374   -2.8055 S.2     1  UNL1       -0.0778
     32 C           0.6226    2.3308   -3.0545 C.ar    1  UNL1        0.1325
     33 C           0.8035    3.0156   -1.8626 C.ar    1  UNL1        0.1527
     34 F           1.1448    4.3080   -1.8191 F       1  UNL1       -0.2034
     35 C           0.7403    2.7631   -4.4561 C.2     1  UNL1        0.3485
     36 O           0.5488    2.0174   -5.4065 O.2     1  UNL1       -0.2443
     37 O           1.0827    4.0695   -4.5692 O.3     1  UNL1       -0.4640
     38 C           1.2158    4.5464   -5.9162 C.3     1  UNL1        0.0820
     39 H           1.4941    5.6117   -5.8331 H       1  UNL1        0.0661
     40 H           0.2617    4.4363   -6.4702 H       1  UNL1        0.0661
     41 H           2.0001    3.9813   -6.4593 H       1  UNL1        0.0661
     42 H           0.8787    3.2861    1.3065 H       1  UNL1        0.0701
@<TRIPOS>BOND
     1    40    38    1
     2    41    38    1
     3    38    39    1
     4    38    37    1
     5    36    35    2
     6    37    35    1
     7    35    32    1
     8    18    17    1
     9    20    17    1
    10    17    19    1
    11    17    11    1
    12    32    31   ar
    13    32    33   ar
    14    31    29   ar
    15    11     8    1
    16    33    34    1
    17    33    30   ar
    18     5     2    1
    19    22     9   ar
    20    22    23   ar
    21     8     9   ar
    22     8     4   ar
    23    29    30   ar
    24    29    26   ar
    25     2     4   ar
    26     2     1   ar
    27    30    28   ar
    28     9    10   ar
    29     4     6   ar
    30    23    26    1
    31    23    21   ar
    32    26    27   ar
    33     1    25    1
    34     1     3   ar
    35    10    21   ar
    36    10     7   ar
    37    28    42    1
    38    28    27   ar
    39     6     7   ar
    40     6     3   ar
    41    21    24    1
    42     7    12    1
    43    12    13    1
    44    16    13    1
    45    13    15    1
    46    13    14    1
