@<TRIPOS>MOLECULE
/home/robert/research/aromodel/code/impropers-ptb7out/XYZ_Files/Dimethoxy_Benzodithiophene_Phi_10_Theta_140_Methylcarbonyl_3_Fluoro_Thienothiophene.xyz
 42 46 0 0 0
SMALL
GASTEIGER

@<TRIPOS>ATOM
      1 C          -0.1729   -8.5177   -0.2704 C.ar    1  UNL1       -0.0230
      2 C           0.5247   -7.6416    0.5484 C.ar    1  UNL1       -0.0433
      3 S          -1.1806   -7.6386   -1.4458 S.2     1  UNL1       -0.0929
      4 C           0.2827   -6.2648    0.2600 C.ar    1  UNL1        0.0355
      5 H           1.2030   -7.9661    1.3476 H       1  UNL1        0.0630
      6 C          -0.6330   -6.0727   -0.8339 C.ar    1  UNL1        0.0651
      7 C          -1.0136   -4.7870   -1.2487 C.ar    1  UNL1        0.1427
      8 C           0.8451   -5.1628    0.9657 C.ar    1  UNL1        0.1427
      9 C           0.4609   -3.8748    0.5534 C.ar    1  UNL1        0.0657
     10 C          -0.4535   -3.6840   -0.5435 C.ar    1  UNL1        0.0361
     11 O           1.7148   -5.4998    1.9583 O.3     1  UNL1       -0.4933
     12 O          -1.8882   -4.4591   -2.2451 O.3     1  UNL1       -0.4933
     13 C          -2.0338   -5.3291   -3.3610 C.3     1  UNL1        0.0789
     14 H          -2.5848   -4.7557   -4.1307 H       1  UNL1        0.0660
     15 H          -2.6241   -6.2381   -3.1124 H       1  UNL1        0.0660
     16 H          -1.0477   -5.6373   -3.7709 H       1  UNL1        0.0660
     17 C           2.0139   -4.5723    2.9943 C.3     1  UNL1        0.0789
     18 H           2.5709   -5.1397    3.7637 H       1  UNL1        0.0660
     19 H           1.0906   -4.1531    3.4488 H       1  UNL1        0.0660
     20 H           2.6577   -3.7395    2.6368 H       1  UNL1        0.0660
     21 C          -0.6949   -2.3067   -0.8277 C.ar    1  UNL1       -0.0350
     22 S           1.0000   -2.3065    1.1747 S.2     1  UNL1       -0.0839
     23 C          -0.0000   -1.4352   -0.0000 C.ar    1  UNL1        0.0284
     24 H          -1.3704   -1.9781   -1.6275 H       1  UNL1        0.0636
     25 H          -0.1771   -9.6140   -0.2698 H       1  UNL1        0.0694
     26 C           0.0000    0.0000    0.0000 C.ar    1  UNL1        0.0403
     27 S           0.1576    0.8909    1.5075 S.2     1  UNL1       -0.0943
     28 C           0.4299    2.4397    0.7189 C.ar    1  UNL1       -0.0127
     29 C           0.1578    0.8906   -1.0679 C.ar    1  UNL1        0.0382
     30 C           0.3969    2.2600   -0.6864 C.ar    1  UNL1        0.0329
     31 S           0.1183    0.6502   -2.8055 S.2     1  UNL1       -0.0778
     32 C           0.4170    2.3762   -3.0545 C.ar    1  UNL1        0.1325
     33 C           0.5376    3.0742   -1.8626 C.ar    1  UNL1        0.1527
     34 F           0.7650    4.3914   -1.8191 F       1  UNL1       -0.2034
     35 C           0.4967    2.8171   -4.4561 C.2     1  UNL1        0.3485
     36 O           0.3709    2.0576   -5.4065 O.2     1  UNL1       -0.2443
     37 O           0.7239    4.1484   -4.5692 O.3     1  UNL1       -0.4640
     38 C           0.8150    4.6351   -5.9162 C.3     1  UNL1        0.0820
     39 H           0.9993    5.7206   -5.8331 H       1  UNL1        0.0661
     40 H          -0.1259    4.4422   -6.4702 H       1  UNL1        0.0661
     41 H           1.6455    4.1405   -6.4593 H       1  UNL1        0.0661
     42 H           0.5890    3.3502    1.3065 H       1  UNL1        0.0701
@<TRIPOS>BOND
     1    40    38    1
     2    41    38    1
     3    38    39    1
     4    38    37    1
     5    36    35    2
     6    37    35    1
     7    35    32    1
     8    14    13    1
     9    16    13    1
    10    13    15    1
    11    13    12    1
    12    32    31   ar
    13    32    33   ar
    14    31    29   ar
    15    12     7    1
    16    33    34    1
    17    33    30   ar
    18    24    21    1
    19     3     6   ar
    20     3     1   ar
    21     7     6   ar
    22     7    10   ar
    23    29    30   ar
    24    29    26   ar
    25     6     4   ar
    26    21    10   ar
    27    21    23   ar
    28    30    28   ar
    29    10     9   ar
    30     1    25    1
    31     1     2   ar
    32    23    26    1
    33    23    22   ar
    34    26    27   ar
    35     4     2   ar
    36     4     8   ar
    37     2     5    1
    38     9     8   ar
    39     9    22   ar
    40    28    42    1
    41    28    27   ar
    42     8    11    1
    43    11    17    1
    44    20    17    1
    45    17    19    1
    46    17    18    1
