@<TRIPOS>MOLECULE
/home/robert/research/aromodel/code/impropers-ptb7out/XYZ_Files/Dimethoxy_Benzodithiophene_Phi_60_Theta_100_Methylcarbonyl_3_Fluoro_Thienothiophene.xyz
 42 46 0 0 0
SMALL
GASTEIGER

@<TRIPOS>ATOM
      1 C          -0.3062   -8.5177   -0.0960 C.ar    1  UNL1       -0.0230
      2 C           0.7544   -7.6416    0.0828 C.ar    1  UNL1       -0.0433
      3 S          -1.8337   -7.6386   -0.3486 S.2     1  UNL1       -0.0929
      4 C           0.3837   -6.2648    0.0174 C.ar    1  UNL1        0.0355
      5 H           1.7878   -7.9661    0.2590 H       1  UNL1        0.0630
      6 C          -1.0209   -6.0727   -0.2319 C.ar    1  UNL1        0.0651
      7 C          -1.5791   -4.7870   -0.3050 C.ar    1  UNL1        0.1427
      8 C           1.2681   -5.1628    0.1965 C.ar    1  UNL1        0.1427
      9 C           0.7088   -3.8748    0.1276 C.ar    1  UNL1        0.0654
     10 C          -0.6968   -3.6840   -0.1248 C.ar    1  UNL1        0.0358
     11 O           2.5724   -5.4998    0.3979 O.3     1  UNL1       -0.4933
     12 O          -2.8895   -4.4591   -0.5061 O.3     1  UNL1       -0.4933
     13 C          -3.7184   -5.3291   -1.2673 C.3     1  UNL1        0.0789
     14 H          -4.6352   -4.7557   -1.5028 H       1  UNL1        0.0660
     15 H          -4.0108   -6.2381   -0.6975 H       1  UNL1        0.0660
     16 H          -3.2265   -5.6373   -2.2152 H       1  UNL1        0.0660
     17 C           3.4674   -4.5723    0.9992 C.3     1  UNL1        0.0789
     18 H           4.3886   -5.1397    1.2306 H       1  UNL1        0.0660
     19 H           3.0523   -4.1531    1.9409 H       1  UNL1        0.0660
     20 H           3.7308   -3.7395    0.3115 H       1  UNL1        0.0660
     21 C          -1.0644   -2.3067   -0.1873 C.ar    1  UNL1       -0.0384
     22 S           1.5212   -2.3065    0.2571 S.2     1  UNL1       -0.0876
     23 C          -0.0000   -1.4352   -0.0000 C.ar    1  UNL1        0.0141
     24 H          -2.0959   -1.9781   -0.3659 H       1  UNL1        0.0633
     25 H          -0.3091   -9.6140   -0.0929 H       1  UNL1        0.0694
     26 C           0.0000    0.0000    0.0000 C.3     1  UNL1        0.1030
     27 S           0.7838    0.4520    1.5075 S.3     1  UNL1       -0.1318
     28 C           2.1453    1.2389    0.7189 C.3     1  UNL1        0.0510
     29 C           0.7836    0.4516   -1.0679 C.ar    1  UNL1        0.0206
     30 C           1.9864    1.1486   -0.6864 C.ar    1  UNL1        0.0149
     31 S           0.5741    0.3273   -2.8055 S.2     1  UNL1       -0.0818
     32 C           2.0884    1.2079   -3.0545 C.ar    1  UNL1        0.1319
     33 C           2.7005    1.5642   -1.8626 C.ar    1  UNL1        0.1490
     34 F           3.8557    2.2367   -1.8191 F       1  UNL1       -0.2037
     35 C           2.4773    1.4303   -4.4561 C.2     1  UNL1        0.3485
     36 O           1.8146    1.0385   -5.4065 O.2     1  UNL1       -0.2443
     37 O           3.6432    2.1120   -4.5692 O.3     1  UNL1       -0.4640
     38 C           4.0745    2.3551   -5.9162 C.3     1  UNL1        0.0820
     39 H           5.0246    2.9116   -5.8331 H       1  UNL1        0.0661
     40 H           3.3220    2.9519   -6.4702 H       1  UNL1        0.0661
     41 H           4.2295    1.4009   -6.4593 H       1  UNL1        0.0661
     42 H           2.9450    1.7023    1.3065 H       1  UNL1        0.0477
@<TRIPOS>BOND
     1    40    38    1
     2    41    38    1
     3    38    39    1
     4    38    37    1
     5    36    35    2
     6    37    35    1
     7    35    32    1
     8    32    31   ar
     9    32    33   ar
    10    31    29   ar
    11    16    13    1
    12    33    34    1
    13    33    30   ar
    14    14    13    1
    15    13    15    1
    16    13    12    1
    17    29    30   ar
    18    29    26    1
    19    30    28    1
    20    12     7    1
    21    24    21    1
    22     3     6   ar
    23     3     1   ar
    24     7     6   ar
    25     7    10   ar
    26     6     4   ar
    27    21    10   ar
    28    21    23   ar
    29    10     9   ar
    30     1    25    1
    31     1     2   ar
    32    23    26    1
    33    23    22   ar
    34    26    27    1
    35     4     2   ar
    36     4     8   ar
    37     2     5    1
    38     9     8   ar
    39     9    22   ar
    40     8    11    1
    41    20    17    1
    42    11    17    1
    43    28    42    1
    44    28    27    1
    45    17    18    1
    46    17    19    1
