@<TRIPOS>MOLECULE
/home/robert/research/aromodel/code/impropers-ptb7out/XYZ_Files/Dimethoxy_Benzodithiophene_Phi_30_Theta_80_Methylcarbonyl_3_Fluoro_Thienothiophene.xyz
 42 46 0 0 0
SMALL
GASTEIGER

@<TRIPOS>ATOM
      1 C          -0.3206   -8.5177    0.0146 C.ar    1  UNL1       -0.0230
      2 C           0.7372   -7.6416   -0.1802 C.ar    1  UNL1       -0.0433
      3 S          -1.8424   -7.6386    0.2996 S.2     1  UNL1       -0.0929
      4 C           0.3665   -6.2648   -0.1149 C.ar    1  UNL1        0.0355
      5 H           1.7685   -7.9661   -0.3681 H       1  UNL1        0.0630
      6 C          -1.0386   -6.0727    0.1312 C.ar    1  UNL1        0.0651
      7 C          -1.5882   -4.7870    0.2534 C.ar    1  UNL1        0.1427
      8 C           1.2588   -5.1628   -0.2490 C.ar    1  UNL1        0.1427
      9 C           0.7097   -3.8748   -0.1225 C.ar    1  UNL1        0.0657
     10 C          -0.6974   -3.6840    0.1210 C.ar    1  UNL1        0.0361
     11 O           2.5533   -5.4998   -0.5059 O.3     1  UNL1       -0.4933
     12 O          -2.8884   -4.4591    0.5127 O.3     1  UNL1       -0.4933
     13 C          -3.9276   -5.3291    0.0809 C.3     1  UNL1        0.0789
     14 H          -4.8697   -4.7557    0.1732 H       1  UNL1        0.0660
     15 H          -4.0075   -6.2381    0.7164 H       1  UNL1        0.0660
     16 H          -3.7896   -5.6373   -0.9781 H       1  UNL1        0.0660
     17 C           3.6001   -4.5723   -0.2469 C.3     1  UNL1        0.0789
     18 H           4.5449   -5.1397   -0.3446 H       1  UNL1        0.0660
     19 H           3.5321   -4.1531    0.7799 H       1  UNL1        0.0660
     20 H           3.6124   -3.7395   -0.9833 H       1  UNL1        0.0660
     21 C          -1.0642   -2.3067    0.1880 C.ar    1  UNL1       -0.0350
     22 S           1.5174   -2.3065   -0.2786 S.2     1  UNL1       -0.0839
     23 C          -0.0000   -1.4352   -0.0000 C.ar    1  UNL1        0.0284
     24 H          -2.0947   -1.9781    0.3730 H       1  UNL1        0.0636
     25 H          -0.3222   -9.6140    0.0185 H       1  UNL1        0.0694
     26 C           0.0000    0.0000    0.0000 C.ar    1  UNL1        0.0403
     27 S           0.4528    0.7833    1.5075 S.2     1  UNL1       -0.0943
     28 C           1.2384    2.1456    0.7189 C.ar    1  UNL1       -0.0127
     29 C           0.4529    0.7829   -1.0679 C.ar    1  UNL1        0.0382
     30 C           1.1459    1.9880   -0.6864 C.ar    1  UNL1        0.0329
     31 S           0.3336    0.5705   -2.8055 S.2     1  UNL1       -0.0778
     32 C           1.2046    2.0903   -3.0545 C.ar    1  UNL1        0.1325
     33 C           1.5566    2.7049   -1.8626 C.ar    1  UNL1        0.1527
     34 F           2.2208    3.8649   -1.8191 F       1  UNL1       -0.2034
     35 C           1.4303    2.4773   -4.4561 C.2     1  UNL1        0.3485
     36 O           1.0522    1.8066   -5.4065 O.2     1  UNL1       -0.2443
     37 O           2.0991    3.6507   -4.5692 O.3     1  UNL1       -0.4640
     38 C           2.3511    4.0768   -5.9162 C.3     1  UNL1        0.0820
     39 H           2.8956    5.0338   -5.8331 H       1  UNL1        0.0661
     40 H           1.4010    4.2174   -6.4702 H       1  UNL1        0.0661
     41 H           2.9624    3.3280   -6.4593 H       1  UNL1        0.0661
     42 H           1.6993    2.9467    1.3065 H       1  UNL1        0.0701
@<TRIPOS>BOND
     1    40    38    1
     2    41    38    1
     3    38    39    1
     4    38    37    1
     5    36    35    2
     6    37    35    1
     7    35    32    1
     8    32    31   ar
     9    32    33   ar
    10    31    29   ar
    11    33    34    1
    12    33    30   ar
    13    29    30   ar
    14    29    26   ar
    15    20    17    1
    16    16    13    1
    17    30    28   ar
    18    11     8    1
    19    11    17    1
    20     5     2    1
    21    18    17    1
    22    22     9   ar
    23    22    23   ar
    24     8     9   ar
    25     8     4   ar
    26    17    19    1
    27     2     4   ar
    28     2     1   ar
    29     9    10   ar
    30     4     6   ar
    31    23    26    1
    32    23    21   ar
    33    26    27   ar
    34     1    25    1
    35     1     3   ar
    36    13    14    1
    37    13    12    1
    38    13    15    1
    39    10    21   ar
    40    10     7   ar
    41     6     7   ar
    42     6     3   ar
    43    21    24    1
    44     7    12    1
    45    28    42    1
    46    28    27   ar
