@<TRIPOS>MOLECULE
/home/robert/research/aromodel/code/impropers-ptb7out/XYZ_Files/Dimethoxy_Benzodithiophene_Phi_30_Theta_110_Methylcarbonyl_3_Fluoro_Thienothiophene.xyz
 42 46 0 0 0
SMALL
GASTEIGER

@<TRIPOS>ATOM
      1 C          -0.2849   -8.5177   -0.1477 C.ar    1  UNL1       -0.0230
      2 C           0.7286   -7.6416    0.2126 C.ar    1  UNL1       -0.0433
      3 S          -1.7453   -7.6386   -0.6618 S.2     1  UNL1       -0.0929
      4 C           0.3748   -6.2648    0.0838 C.ar    1  UNL1        0.0355
      5 H           1.7156   -7.9661    0.5655 H       1  UNL1        0.0630
      6 C          -0.9651   -6.0727   -0.4057 C.ar    1  UNL1        0.0651
      7 C          -1.5021   -4.7870   -0.5746 C.ar    1  UNL1        0.1427
      8 C           1.2147   -5.1628    0.4138 C.ar    1  UNL1        0.1427
      9 C           0.6759   -3.8748    0.2487 C.ar    1  UNL1        0.0657
     10 C          -0.6645   -3.6840   -0.2439 C.ar    1  UNL1        0.0361
     11 O           2.4642   -5.4998    0.8385 O.3     1  UNL1       -0.4933
     12 O          -2.7578   -4.4591   -1.0002 O.3     1  UNL1       -0.4933
     13 C          -3.4419   -5.3291   -1.8938 C.3     1  UNL1        0.0789
     14 H          -4.3038   -4.7557   -2.2849 H       1  UNL1        0.0660
     15 H          -3.8287   -6.2381   -1.3833 H       1  UNL1        0.0660
     16 H          -2.7928   -5.6373   -2.7418 H       1  UNL1        0.0660
     17 C           3.2412   -4.5723    1.5862 C.3     1  UNL1        0.0789
     18 H           4.1083   -5.1397    1.9740 H       1  UNL1        0.0660
     19 H           2.6689   -4.1531    2.4414 H       1  UNL1        0.0660
     20 H           3.6200   -3.7395    0.9547 H       1  UNL1        0.0660
     21 C          -1.0157   -2.3067   -0.3693 C.ar    1  UNL1       -0.0350
     22 S           1.4534   -2.3065    0.5174 S.2     1  UNL1       -0.0839
     23 C          -0.0000   -1.4352   -0.0000 C.ar    1  UNL1        0.0284
     24 H          -2.0006   -1.9781   -0.7243 H       1  UNL1        0.0636
     25 H          -0.2883   -9.6140   -0.1451 H       1  UNL1        0.0694
     26 C           0.0000    0.0000    0.0000 C.ar    1  UNL1        0.0403
     27 S           0.4528    0.7833    1.5075 S.2     1  UNL1       -0.0943
     28 C           1.2384    2.1456    0.7189 C.ar    1  UNL1       -0.0127
     29 C           0.4529    0.7829   -1.0679 C.ar    1  UNL1        0.0382
     30 C           1.1459    1.9880   -0.6864 C.ar    1  UNL1        0.0329
     31 S           0.3336    0.5705   -2.8055 S.2     1  UNL1       -0.0778
     32 C           1.2046    2.0903   -3.0545 C.ar    1  UNL1        0.1325
     33 C           1.5566    2.7049   -1.8626 C.ar    1  UNL1        0.1527
     34 F           2.2208    3.8649   -1.8191 F       1  UNL1       -0.2034
     35 C           1.4303    2.4773   -4.4561 C.2     1  UNL1        0.3485
     36 O           1.0522    1.8066   -5.4065 O.2     1  UNL1       -0.2443
     37 O           2.0991    3.6507   -4.5692 O.3     1  UNL1       -0.4640
     38 C           2.3511    4.0768   -5.9162 C.3     1  UNL1        0.0820
     39 H           2.8956    5.0338   -5.8331 H       1  UNL1        0.0661
     40 H           1.4010    4.2174   -6.4702 H       1  UNL1        0.0661
     41 H           2.9624    3.3280   -6.4593 H       1  UNL1        0.0661
     42 H           1.6993    2.9467    1.3065 H       1  UNL1        0.0701
@<TRIPOS>BOND
     1    40    38    1
     2    41    38    1
     3    38    39    1
     4    38    37    1
     5    36    35    2
     6    37    35    1
     7    35    32    1
     8    32    31   ar
     9    32    33   ar
    10    31    29   ar
    11    16    13    1
    12    14    13    1
    13    13    15    1
    14    13    12    1
    15    33    34    1
    16    33    30   ar
    17    29    30   ar
    18    29    26   ar
    19    12     7    1
    20    24    21    1
    21    30    28   ar
    22     3     6   ar
    23     3     1   ar
    24     7     6   ar
    25     7    10   ar
    26     6     4   ar
    27    21    10   ar
    28    21    23   ar
    29    10     9   ar
    30     1    25    1
    31     1     2   ar
    32    23    26    1
    33    23    22   ar
    34    26    27   ar
    35     4     2   ar
    36     4     8   ar
    37     2     5    1
    38     9     8   ar
    39     9    22   ar
    40     8    11    1
    41    28    42    1
    42    28    27   ar
    43    11    17    1
    44    20    17    1
    45    17    18    1
    46    17    19    1
