@<TRIPOS>MOLECULE
/home/robert/research/aromodel/code/impropers-ptb7out/XYZ_Files/Dimethoxy_Benzodithiophene_Phi_5_Theta_120_Methylcarbonyl_3_Fluoro_Thienothiophene.xyz
 42 46 0 0 0
SMALL
GASTEIGER

@<TRIPOS>ATOM
      1 C          -0.2549   -8.5177   -0.1949 C.ar    1  UNL1       -0.0230
      2 C           0.6806   -7.6416    0.3358 C.ar    1  UNL1       -0.0433
      3 S          -1.6039   -7.6386   -0.9548 S.2     1  UNL1       -0.0929
      4 C           0.3546   -6.2648    0.1476 C.ar    1  UNL1        0.0355
      5 H           1.5914   -7.9661    0.8548 H       1  UNL1        0.0630
      6 C          -0.8800   -6.0727   -0.5671 C.ar    1  UNL1        0.0651
      7 C          -1.3795   -4.7870   -0.8267 C.ar    1  UNL1        0.1427
      8 C           1.1244   -5.1628    0.6184 C.ar    1  UNL1        0.1427
      9 C           0.6224   -3.8748    0.3623 C.ar    1  UNL1        0.0657
     10 C          -0.6121   -3.6840   -0.3556 C.ar    1  UNL1        0.0361
     11 O           2.2812   -5.4998    1.2537 O.3     1  UNL1       -0.4933
     12 O          -2.5422   -4.4591   -1.4639 O.3     1  UNL1       -0.4933
     13 C          -3.0607   -5.3291   -2.4627 C.3     1  UNL1        0.0789
     14 H          -3.8417   -4.7557   -2.9975 H       1  UNL1        0.0660
     15 H          -3.5304   -6.2381   -2.0272 H       1  UNL1        0.0660
     16 H          -2.2743   -5.6373   -3.1851 H       1  UNL1        0.0660
     17 C           2.9165   -4.5723    2.1249 C.3     1  UNL1        0.0789
     18 H           3.7031   -5.1397    2.6574 H       1  UNL1        0.0660
     19 H           2.2044   -4.1531    2.8678 H       1  UNL1        0.0660
     20 H           3.3993   -3.7395    1.5688 H       1  UNL1        0.0660
     21 C          -0.9361   -2.3067   -0.5401 C.ar    1  UNL1       -0.0350
     22 S           1.3415   -2.3065    0.7619 S.2     1  UNL1       -0.0839
     23 C          -0.0000   -1.4352   -0.0000 C.ar    1  UNL1        0.0284
     24 H          -1.8444   -1.9781   -1.0607 H       1  UNL1        0.0636
     25 H          -0.2587   -9.6140   -0.1930 H       1  UNL1        0.0694
     26 C           0.0000    0.0000    0.0000 C.ar    1  UNL1        0.0403
     27 S           0.0793    0.9013    1.5075 S.2     1  UNL1       -0.0943
     28 C           0.2156    2.4679    0.7189 C.ar    1  UNL1       -0.0127
     29 C           0.0796    0.9009   -1.0679 C.ar    1  UNL1        0.0382
     30 C           0.1984    2.2860   -0.6864 C.ar    1  UNL1        0.0329
     31 S           0.0612    0.6580   -2.8055 S.2     1  UNL1       -0.0778
     32 C           0.2083    2.4035   -3.0545 C.ar    1  UNL1        0.1325
     33 C           0.2676    3.1094   -1.8626 C.ar    1  UNL1        0.1527
     34 F           0.3793    4.4413   -1.8191 F       1  UNL1       -0.2034
     35 C           0.2493    2.8497   -4.4561 C.2     1  UNL1        0.3485
     36 O           0.1901    2.0821   -5.4065 O.2     1  UNL1       -0.2443
     37 O           0.3595    4.1957   -4.5692 O.3     1  UNL1       -0.4640
     38 C           0.4079    4.6885   -5.9162 C.3     1  UNL1        0.0820
     39 H           0.4969    5.7859   -5.8331 H       1  UNL1        0.0661
     40 H          -0.5126    4.4143   -6.4702 H       1  UNL1        0.0661
     41 H           1.2784    4.2681   -6.4593 H       1  UNL1        0.0661
     42 H           0.2948    3.3888    1.3065 H       1  UNL1        0.0701
@<TRIPOS>BOND
     1    40    38    1
     2    41    38    1
     3    38    39    1
     4    38    37    1
     5    36    35    2
     6    37    35    1
     7    35    32    1
     8    16    13    1
     9    32    31   ar
    10    32    33   ar
    11    14    13    1
    12    31    29   ar
    13    13    15    1
    14    13    12    1
    15    33    34    1
    16    33    30   ar
    17    12     7    1
    18    29    30   ar
    19    29    26   ar
    20    24    21    1
    21     3     6   ar
    22     3     1   ar
    23     7     6   ar
    24     7    10   ar
    25    30    28   ar
    26     6     4   ar
    27    21    10   ar
    28    21    23   ar
    29    10     9   ar
    30     1    25    1
    31     1     2   ar
    32    26    23    1
    33    26    27   ar
    34    23    22   ar
    35     4     2   ar
    36     4     8   ar
    37     2     5    1
    38     9     8   ar
    39     9    22   ar
    40     8    11    1
    41    28    42    1
    42    28    27   ar
    43    11    17    1
    44    20    17    1
    45    17    18    1
    46    17    19    1
