@<TRIPOS>MOLECULE
/home/robert/research/aromodel/code/impropers-ptb7out/XYZ_Files/Dimethoxy_Benzodithiophene_Phi_15_Theta_230_Methylcarbonyl_3_Fluoro_Thienothiophene.xyz
 42 46 0 0 0
SMALL
GASTEIGER

@<TRIPOS>ATOM
      1 C           0.2704   -8.5177   -0.1729 C.ar    1  UNL1       -0.0230
      2 C          -0.5484   -7.6416    0.5247 C.ar    1  UNL1       -0.0433
      3 S           1.4458   -7.6386   -1.1806 S.2     1  UNL1       -0.0929
      4 C          -0.2600   -6.2648    0.2827 C.ar    1  UNL1        0.0355
      5 H          -1.3476   -7.9661    1.2030 H       1  UNL1        0.0630
      6 C           0.8339   -6.0727   -0.6330 C.ar    1  UNL1        0.0651
      7 C           1.2487   -4.7870   -1.0136 C.ar    1  UNL1        0.1427
      8 C          -0.9657   -5.1628    0.8451 C.ar    1  UNL1        0.1427
      9 C          -0.5534   -3.8748    0.4609 C.ar    1  UNL1        0.0657
     10 C           0.5435   -3.6840   -0.4535 C.ar    1  UNL1        0.0361
     11 O          -1.9583   -5.4998    1.7148 O.3     1  UNL1       -0.4933
     12 O           2.2451   -4.4591   -1.8882 O.3     1  UNL1       -0.4933
     13 C           3.3610   -5.3291   -2.0338 C.3     1  UNL1        0.0789
     14 H           4.1307   -4.7557   -2.5848 H       1  UNL1        0.0660
     15 H           3.1124   -6.2381   -2.6241 H       1  UNL1        0.0660
     16 H           3.7709   -5.6373   -1.0477 H       1  UNL1        0.0660
     17 C          -2.9943   -4.5723    2.0139 C.3     1  UNL1        0.0789
     18 H          -3.7637   -5.1397    2.5709 H       1  UNL1        0.0660
     19 H          -3.4488   -4.1531    1.0906 H       1  UNL1        0.0660
     20 H          -2.6368   -3.7395    2.6577 H       1  UNL1        0.0660
     21 C           0.8277   -2.3067   -0.6949 C.ar    1  UNL1       -0.0350
     22 S          -1.1747   -2.3065    1.0000 S.2     1  UNL1       -0.0839
     23 C           0.0000   -1.4352    0.0000 C.ar    1  UNL1        0.0284
     24 H           1.6275   -1.9781   -1.3704 H       1  UNL1        0.0636
     25 H           0.2698   -9.6140   -0.1771 H       1  UNL1        0.0694
     26 C           0.0000    0.0000    0.0000 C.ar    1  UNL1        0.0403
     27 S           0.2346    0.8738    1.5075 S.2     1  UNL1       -0.0943
     28 C           0.6409    2.3930    0.7189 C.ar    1  UNL1       -0.0127
     29 C           0.2348    0.8734   -1.0679 C.ar    1  UNL1        0.0382
     30 C           0.5924    2.2168   -0.6864 C.ar    1  UNL1        0.0329
     31 S           0.1745    0.6374   -2.8055 S.2     1  UNL1       -0.0778
     32 C           0.6226    2.3308   -3.0545 C.ar    1  UNL1        0.1325
     33 C           0.8035    3.0156   -1.8626 C.ar    1  UNL1        0.1527
     34 F           1.1448    4.3080   -1.8191 F       1  UNL1       -0.2034
     35 C           0.7403    2.7631   -4.4561 C.2     1  UNL1        0.3485
     36 O           0.5488    2.0174   -5.4065 O.2     1  UNL1       -0.2443
     37 O           1.0827    4.0695   -4.5692 O.3     1  UNL1       -0.4640
     38 C           1.2158    4.5464   -5.9162 C.3     1  UNL1        0.0820
     39 H           1.4941    5.6117   -5.8331 H       1  UNL1        0.0661
     40 H           0.2617    4.4363   -6.4702 H       1  UNL1        0.0661
     41 H           2.0001    3.9813   -6.4593 H       1  UNL1        0.0661
     42 H           0.8787    3.2861    1.3065 H       1  UNL1        0.0701
@<TRIPOS>BOND
     1    40    38    1
     2    41    38    1
     3    38    39    1
     4    38    37    1
     5    36    35    2
     6    37    35    1
     7    35    32    1
     8    32    31   ar
     9    32    33   ar
    10    31    29   ar
    11    15    13    1
    12    14    13    1
    13    13    12    1
    14    13    16    1
    15    12     7    1
    16    33    34    1
    17    33    30   ar
    18    24    21    1
    19     3     6   ar
    20     3     1   ar
    21    29    30   ar
    22    29    26   ar
    23     7     6   ar
    24     7    10   ar
    25    21    10   ar
    26    21    23   ar
    27    30    28   ar
    28     6     4   ar
    29    10     9   ar
    30    25     1    1
    31     1     2   ar
    32    26    23    1
    33    26    27   ar
    34    23    22   ar
    35     4     2   ar
    36     4     8   ar
    37     9     8   ar
    38     9    22   ar
    39     2     5    1
    40    28    42    1
    41    28    27   ar
    42     8    11    1
    43    19    17    1
    44    11    17    1
    45    17    18    1
    46    17    20    1
