@<TRIPOS>MOLECULE
/home/robert/research/aromodel/code/impropers-ptb7out/XYZ_Files/Dimethoxy_Benzodithiophene_Phi_0_Theta_0_Methylcarbonyl_3_Fluoro_Thienothiophene.xyz
 42 46 0 0 0
SMALL
GASTEIGER

@<TRIPOS>ATOM
      1 C          -8.1672   -2.4325    0.1830 C.ar    1  UNL1       -0.0230
      2 C          -7.5879   -1.1729    0.1352 C.ar    1  UNL1       -0.0433
      3 S          -6.9291   -3.7115    0.2147 S.2     1  UNL1       -0.0929
      4 C          -6.1607   -1.1934    0.1293 C.ar    1  UNL1        0.0355
      5 H          -8.1641   -0.2396    0.1045 H       1  UNL1        0.0630
      6 C          -5.6180   -2.5254    0.1846 C.ar    1  UNL1        0.0651
      7 C          -4.2327   -2.7496    0.1625 C.ar    1  UNL1        0.1427
      8 C          -5.3194   -0.0466    0.0540 C.ar    1  UNL1        0.1427
      9 C          -3.9318   -0.2707    0.0276 C.ar    1  UNL1        0.0657
     10 C          -3.3899   -1.6044    0.0858 C.ar    1  UNL1        0.0361
     11 O          -5.9755    1.1469    0.0350 O.3     1  UNL1       -0.4933
     12 O          -3.5838   -3.9513    0.1806 O.3     1  UNL1       -0.4933
     13 C          -4.1861   -5.0605    0.8366 C.3     1  UNL1        0.0789
     14 H          -3.3946   -5.8273    0.9379 H       1  UNL1        0.0660
     15 H          -5.0219   -5.4960    0.2464 H       1  UNL1        0.0660
     16 H          -4.5596   -4.7850    1.8465 H       1  UNL1        0.0660
     17 C          -5.3260    2.3138   -0.4546 C.3     1  UNL1        0.0789
     18 H          -6.1127    3.0858   -0.5514 H       1  UNL1        0.0660
     19 H          -4.8637    2.1390   -1.4497 H       1  UNL1        0.0660
     20 H          -4.5513    2.6876    0.2496 H       1  UNL1        0.0660
     21 C          -1.9631   -1.6214    0.0775 C.ar    1  UNL1       -0.0350
     22 S          -2.6189    0.9171   -0.0153 S.2     1  UNL1       -0.0839
     23 C          -1.3896   -0.3583    0.0218 C.ar    1  UNL1        0.0284
     24 H          -1.3833   -2.5523    0.1107 H       1  UNL1        0.0636
     25 H          -9.2282   -2.7086    0.1962 H       1  UNL1        0.0694
     26 C           0.0000    0.0000    0.0000 C.ar    1  UNL1        0.0403
     27 S           1.2530   -1.2326    0.0456 S.2     1  UNL1       -0.0943
     28 C           2.5783   -0.0770   -0.0088 C.ar    1  UNL1       -0.0127
     29 C           0.6087    1.2588   -0.0568 C.ar    1  UNL1        0.0382
     30 C           2.0500    1.2369   -0.0604 C.ar    1  UNL1        0.0329
     31 S          -0.0617    2.8789   -0.1249 S.2     1  UNL1       -0.0778
     32 C           1.5721    3.5574   -0.1558 C.ar    1  UNL1        0.1325
     33 C           2.5559    2.5812   -0.1168 C.ar    1  UNL1        0.1527
     34 F           3.8610    2.8730   -0.1305 F       1  UNL1       -0.2034
     35 C           1.6554    5.0250   -0.2200 C.2     1  UNL1        0.3485
     36 O           0.6723    5.7520   -0.2540 O.2     1  UNL1       -0.2443
     37 O           2.9347    5.4719   -0.2375 O.3     1  UNL1       -0.4640
     38 C           3.0772    6.8984   -0.3037 C.3     1  UNL1        0.0820
     39 H           4.1641    7.0931   -0.3101 H       1  UNL1        0.0661
     40 H           2.6009    7.3838    0.5720 H       1  UNL1        0.0661
     41 H           2.6051    7.3001   -1.2230 H       1  UNL1        0.0661
     42 H           3.6202   -0.4147    0.0019 H       1  UNL1        0.0701
@<TRIPOS>BOND
     1    19    17    1
     2    41    38    1
     3    18    17    1
     4    17    11    1
     5    17    20    1
     6    39    38    1
     7    38    37    1
     8    38    40    1
     9    36    35    2
    10    37    35    1
    11    35    32    1
    12    32    31   ar
    13    32    33   ar
    14    34    33    1
    15    31    29   ar
    16    33    30   ar
    17    30    29   ar
    18    30    28   ar
    19    29    26   ar
    20    22    23   ar
    21    22     9   ar
    22    28    42    1
    23    28    27   ar
    24    26    23    1
    25    26    27   ar
    26    23    21   ar
    27     9     8   ar
    28     9    10   ar
    29    11     8    1
    30     8     4   ar
    31    21    10   ar
    32    21    24    1
    33    10     7   ar
    34     5     2    1
    35     4     2   ar
    36     4     6   ar
    37     2     1   ar
    38     7    12    1
    39     7     6   ar
    40    12    13    1
    41     1    25    1
    42     1     3   ar
    43     6     3   ar
    44    15    13    1
    45    13    14    1
    46    13    16    1
