@<TRIPOS>MOLECULE
/home/robert/research/aromodel/code/impropers-ptb7out/XYZ_Files/Dimethoxy_Benzodithiophene_Phi_15_Theta_30_Methylcarbonyl_3_Fluoro_Thienothiophene.xyz
 42 46 0 0 0
SMALL
GASTEIGER

@<TRIPOS>ATOM
      1 C          -0.1949   -8.5177    0.2549 C.ar    1  UNL1       -0.0230
      2 C           0.3358   -7.6416   -0.6806 C.ar    1  UNL1       -0.0433
      3 S          -0.9548   -7.6386    1.6039 S.2     1  UNL1       -0.0929
      4 C           0.1476   -6.2648   -0.3546 C.ar    1  UNL1        0.0355
      5 H           0.8548   -7.9661   -1.5914 H       1  UNL1        0.0630
      6 C          -0.5671   -6.0727    0.8800 C.ar    1  UNL1        0.0651
      7 C          -0.8267   -4.7870    1.3795 C.ar    1  UNL1        0.1427
      8 C           0.6184   -5.1628   -1.1244 C.ar    1  UNL1        0.1427
      9 C           0.3623   -3.8748   -0.6224 C.ar    1  UNL1        0.0657
     10 C          -0.3556   -3.6840    0.6121 C.ar    1  UNL1        0.0361
     11 O           1.2537   -5.4998   -2.2812 O.3     1  UNL1       -0.4933
     12 O          -1.4639   -4.4591    2.5422 O.3     1  UNL1       -0.4933
     13 C          -2.4627   -5.3291    3.0607 C.3     1  UNL1        0.0789
     14 H          -2.9975   -4.7557    3.8417 H       1  UNL1        0.0660
     15 H          -2.0272   -6.2381    3.5304 H       1  UNL1        0.0660
     16 H          -3.1851   -5.6373    2.2743 H       1  UNL1        0.0660
     17 C           2.1249   -4.5723   -2.9165 C.3     1  UNL1        0.0789
     18 H           2.6574   -5.1397   -3.7031 H       1  UNL1        0.0660
     19 H           2.8678   -4.1531   -2.2044 H       1  UNL1        0.0660
     20 H           1.5688   -3.7395   -3.3993 H       1  UNL1        0.0660
     21 C          -0.5401   -2.3067    0.9361 C.ar    1  UNL1       -0.0350
     22 S           0.7619   -2.3065   -1.3415 S.2     1  UNL1       -0.0839
     23 C           0.0000   -1.4352    0.0000 C.ar    1  UNL1        0.0284
     24 H          -1.0607   -1.9781    1.8444 H       1  UNL1        0.0636
     25 H          -0.1930   -9.6140    0.2587 H       1  UNL1        0.0694
     26 C           0.0000    0.0000    0.0000 C.ar    1  UNL1        0.0403
     27 S           0.2346    0.8738    1.5075 S.2     1  UNL1       -0.0943
     28 C           0.6409    2.3930    0.7189 C.ar    1  UNL1       -0.0127
     29 C           0.2348    0.8734   -1.0679 C.ar    1  UNL1        0.0382
     30 C           0.5924    2.2168   -0.6864 C.ar    1  UNL1        0.0329
     31 S           0.1745    0.6374   -2.8055 S.2     1  UNL1       -0.0778
     32 C           0.6226    2.3308   -3.0545 C.ar    1  UNL1        0.1325
     33 C           0.8035    3.0156   -1.8626 C.ar    1  UNL1        0.1527
     34 F           1.1448    4.3080   -1.8191 F       1  UNL1       -0.2034
     35 C           0.7403    2.7631   -4.4561 C.2     1  UNL1        0.3485
     36 O           0.5488    2.0174   -5.4065 O.2     1  UNL1       -0.2443
     37 O           1.0827    4.0695   -4.5692 O.3     1  UNL1       -0.4640
     38 C           1.2158    4.5464   -5.9162 C.3     1  UNL1        0.0820
     39 H           1.4941    5.6117   -5.8331 H       1  UNL1        0.0661
     40 H           0.2617    4.4363   -6.4702 H       1  UNL1        0.0661
     41 H           2.0001    3.9813   -6.4593 H       1  UNL1        0.0661
     42 H           0.8787    3.2861    1.3065 H       1  UNL1        0.0701
@<TRIPOS>BOND
     1    40    38    1
     2    41    38    1
     3    38    39    1
     4    38    37    1
     5    36    35    2
     6    37    35    1
     7    35    32    1
     8    18    17    1
     9    20    17    1
    10    32    31   ar
    11    32    33   ar
    12    17    11    1
    13    17    19    1
    14    31    29   ar
    15    11     8    1
    16    33    34    1
    17    33    30   ar
    18     5     2    1
    19    22     9   ar
    20    22    23   ar
    21     8     9   ar
    22     8     4   ar
    23    29    30   ar
    24    29    26   ar
    25    30    28   ar
    26     2     4   ar
    27     2     1   ar
    28     9    10   ar
    29     4     6   ar
    30    23    26    1
    31    23    21   ar
    32    26    27   ar
    33     1    25    1
    34     1     3   ar
    35    10    21   ar
    36    10     7   ar
    37    28    42    1
    38    28    27   ar
    39     6     7   ar
    40     6     3   ar
    41    21    24    1
    42     7    12    1
    43    16    13    1
    44    12    13    1
    45    13    15    1
    46    13    14    1
