@<TRIPOS>MOLECULE
/home/robert/research/aromodel/code/impropers-ptb7in/XYZ_Files/fin_bdt_Phi_60_Theta_10_fin_ftt.xyz
 42 46 0 0 0
SMALL
GASTEIGER

@<TRIPOS>ATOM
      1 C          -0.0978   -8.5160    0.3428 C.ar    1  UNL1       -0.0230
      2 C           0.0806   -7.6454   -0.7224 C.ar    1  UNL1       -0.0433
      3 S          -0.3493   -7.6290    1.8659 S.2     1  UNL1       -0.0929
      4 C           0.0158   -6.2667   -0.3588 C.ar    1  UNL1        0.0355
      5 H           0.2562   -7.9732   -1.7548 H       1  UNL1        0.0630
      6 C          -0.2326   -6.0673    1.0449 C.ar    1  UNL1        0.0651
      7 C          -0.3050   -4.7788    1.5966 C.ar    1  UNL1        0.1427
      8 C           0.1947   -5.1693   -1.2490 C.ar    1  UNL1        0.1427
      9 C           0.1265   -3.8785   -0.6963 C.ar    1  UNL1        0.0654
     10 C          -0.1250   -3.6803    0.7084 C.ar    1  UNL1        0.0358
     11 O           0.3952   -5.5131   -2.5516 O.3     1  UNL1       -0.4933
     12 O          -0.5052   -4.4440    2.9054 O.3     1  UNL1       -0.4933
     13 C          -1.2662   -5.3095    3.7392 C.3     1  UNL1        0.0789
     14 H          -1.5011   -4.7312    4.6531 H       1  UNL1        0.0660
     15 H          -0.6963   -6.2170    4.0360 H       1  UNL1        0.0660
     16 H          -2.2143   -5.6201    3.2493 H       1  UNL1        0.0660
     17 C           0.9963   -4.5904   -3.4518 C.3     1  UNL1        0.0789
     18 H           1.2264   -5.1626   -4.3704 H       1  UNL1        0.0660
     19 H           1.9386   -4.1699   -3.0396 H       1  UNL1        0.0660
     20 H           0.3088   -3.7586   -3.7187 H       1  UNL1        0.0660
     21 C          -0.1869   -2.3011    1.0690 C.ar    1  UNL1       -0.0384
     22 S           0.2560   -2.3144   -1.5168 S.2     1  UNL1       -0.0876
     23 C           0.0000   -1.4352    0.0000 C.ar    1  UNL1        0.0137
     24 H          -0.3648   -1.9672    2.0989 H       1  UNL1        0.0633
     25 H          -0.0949   -9.6122    0.3510 H       1  UNL1        0.0694
     26 C           0.0000    0.0000    0.0000 C.3     1  UNL1        0.0996
     27 S           0.7800    0.4478    1.5107 S.3     1  UNL1       -0.1318
     28 C           2.1438    1.2364    0.7276 C.3     1  UNL1        0.0544
     29 C           0.7865    0.4541   -1.0647 C.ar    1  UNL1        0.0228
     30 C           1.9885    1.1498   -0.6783 C.ar    1  UNL1        0.0126
     31 C           0.7299    0.4195   -2.4861 C.ar    1  UNL1        0.1496
     32 C           1.8252    1.0520   -3.1069 C.ar    1  UNL1        0.1319
     33 S           2.9039    1.6787   -1.9657 S.2     1  UNL1       -0.0824
     34 C           2.0479    1.1752   -4.5600 C.2     1  UNL1        0.3485
     35 O           1.2410    0.7059   -5.3503 O.2     1  UNL1       -0.2443
     36 O           3.1608    1.8140   -5.0044 O.3     1  UNL1       -0.4640
     37 F          -0.2330   -0.1409   -3.2463 F       1  UNL1       -0.2037
     38 C           3.4765    1.9846   -6.3350 C.3     1  UNL1        0.0820
     39 H           4.4337    2.5365   -6.3703 H       1  UNL1        0.0661
     40 H           2.6938    2.5615   -6.8756 H       1  UNL1        0.0661
     41 H           3.5882    1.0111   -6.8619 H       1  UNL1        0.0661
     42 H           2.9406    1.6963    1.3215 H       1  UNL1        0.0481
@<TRIPOS>BOND
     1    40    38    1
     2    41    38    1
     3    39    38    1
     4    38    36    1
     5    35    34    2
     6    36    34    1
     7    34    32    1
     8    18    17    1
     9    20    17    1
    10    17    19    1
    11    17    11    1
    12    37    31    1
    13    32    31   ar
    14    32    33   ar
    15    11     8    1
    16    31    29   ar
    17    33    30   ar
    18     5     2    1
    19    22     9   ar
    20    22    23   ar
    21     8     9   ar
    22     8     4   ar
    23    29    30   ar
    24    29    26    1
    25     2     4   ar
    26     2     1   ar
    27     9    10   ar
    28    30    28    1
    29     4     6   ar
    30    23    26    1
    31    23    21   ar
    32    26    27    1
    33     1    25    1
    34     1     3   ar
    35    10    21   ar
    36    10     7   ar
    37    28    42    1
    38    28    27    1
    39     6     7   ar
    40     6     3   ar
    41    21    24    1
    42     7    12    1
    43    12    13    1
    44    16    13    1
    45    13    15    1
    46    13    14    1
