@<TRIPOS>MOLECULE
/home/robert/research/aromodel/code/impropers-ptb7in/XYZ_Files/fin_bdt_Phi_15_Theta_40_fin_ftt.xyz
 42 46 0 0 0
SMALL
GASTEIGER

@<TRIPOS>ATOM
      1 C          -0.2561   -8.5160    0.2480 C.ar    1  UNL1       -0.0230
      2 C           0.4310   -7.6454   -0.5854 C.ar    1  UNL1       -0.0433
      3 S          -1.2354   -7.6290    1.4413 S.2     1  UNL1       -0.0929
      4 C           0.1931   -6.2667   -0.3028 C.ar    1  UNL1        0.0355
      5 H           1.0993   -7.9732   -1.3916 H       1  UNL1        0.0630
      6 C          -0.7239   -6.0673    0.7886 C.ar    1  UNL1        0.0651
      7 C          -1.0625   -4.7788    1.2301 C.ar    1  UNL1        0.1427
      8 C           0.7931   -5.1693   -0.9843 C.ar    1  UNL1        0.1427
      9 C           0.4577   -3.8785   -0.5397 C.ar    1  UNL1        0.0657
     10 C          -0.4625   -3.6803    0.5510 C.ar    1  UNL1        0.0361
     11 O           1.6180   -5.5131   -2.0122 O.3     1  UNL1       -0.4933
     12 O          -1.8902   -4.4440    2.2635 O.3     1  UNL1       -0.4933
     13 C          -2.9662   -5.3095    2.6052 C.3     1  UNL1        0.0789
     14 H          -3.6266   -4.7312    3.2791 H       1  UNL1        0.0660
     15 H          -2.6210   -6.2170    3.1472 H       1  UNL1        0.0660
     16 H          -3.5423   -5.6201    1.7069 H       1  UNL1        0.0660
     17 C           2.5887   -4.5904   -2.4912 C.3     1  UNL1        0.0789
     18 H           3.2473   -5.1626   -3.1717 H       1  UNL1        0.0660
     19 H           3.1987   -4.1699   -1.6631 H       1  UNL1        0.0660
     20 H           2.1268   -3.7586   -3.0661 H       1  UNL1        0.0660
     21 C          -0.6964   -2.3011    0.8323 C.ar    1  UNL1       -0.0350
     22 S           0.9801   -2.3144   -1.1856 S.2     1  UNL1       -0.0839
     23 C           0.0000   -1.4352    0.0000 C.ar    1  UNL1        0.0280
     24 H          -1.3654   -1.9672    1.6353 H       1  UNL1        0.0636
     25 H          -0.2577   -9.6122    0.2566 H       1  UNL1        0.0694
     26 C           0.0000    0.0000    0.0000 C.ar    1  UNL1        0.0369
     27 S           0.2349    0.8682    1.5107 S.2     1  UNL1       -0.0943
     28 C           0.6416    2.3901    0.7276 C.ar    1  UNL1       -0.0093
     29 C           0.2350    0.8773   -1.0647 C.ar    1  UNL1        0.0405
     30 C           0.5930    2.2191   -0.6783 C.ar    1  UNL1        0.0306
     31 C           0.2195    0.8127   -2.4861 C.ar    1  UNL1        0.1532
     32 C           0.5467    2.0345   -3.1069 C.ar    1  UNL1        0.1325
     33 S           0.8663    3.2404   -1.9657 S.2     1  UNL1       -0.0784
     34 C           0.6171    2.2791   -4.5600 C.2     1  UNL1        0.3485
     35 O           0.3783    1.3766   -5.3503 O.2     1  UNL1       -0.2443
     36 O           0.9523    3.5177   -5.0044 O.3     1  UNL1       -0.4640
     37 F          -0.0651   -0.2644   -3.2463 F       1  UNL1       -0.2034
     38 C           1.0550    3.8616   -6.3350 C.3     1  UNL1        0.0820
     39 H           1.3415    4.9287   -6.3703 H       1  UNL1        0.0661
     40 H           0.0936    3.7161   -6.8756 H       1  UNL1        0.0661
     41 H           1.8223    3.2522   -6.8619 H       1  UNL1        0.0661
     42 H           0.8798    3.2788    1.3215 H       1  UNL1        0.0705
@<TRIPOS>BOND
     1    40    38    1
     2    41    38    1
     3    39    38    1
     4    38    36    1
     5    35    34    2
     6    36    34    1
     7    34    32    1
     8    37    31    1
     9    18    17    1
    10    32    31   ar
    11    32    33   ar
    12    20    17    1
    13    17    11    1
    14    17    19    1
    15    31    29   ar
    16    11     8    1
    17    33    30   ar
    18     5     2    1
    19    22     9   ar
    20    22    23   ar
    21    29    30   ar
    22    29    26   ar
    23     8     9   ar
    24     8     4   ar
    25    30    28   ar
    26     2     4   ar
    27     2     1   ar
    28     9    10   ar
    29     4     6   ar
    30    23    26    1
    31    23    21   ar
    32    26    27   ar
    33     1    25    1
    34     1     3   ar
    35    10    21   ar
    36    10     7   ar
    37    28    42    1
    38    28    27   ar
    39     6     7   ar
    40     6     3   ar
    41    21    24    1
    42     7    12    1
    43    16    13    1
    44    12    13    1
    45    13    15    1
    46    13    14    1
