@<TRIPOS>MOLECULE
/home/robert/research/aromodel/code/impropers-ptb7in/XYZ_Files/fin_bdt_Phi_0_Theta_340_fin_ftt.xyz
 42 46 0 0 0
SMALL
GASTEIGER

@<TRIPOS>ATOM
      1 C           0.0867   -8.5160    0.3458 C.ar    1  UNL1       -0.0230
      2 C          -0.2914   -7.6454   -0.6659 C.ar    1  UNL1       -0.0433
      3 S           0.6305   -7.6290    1.7906 S.2     1  UNL1       -0.0929
      4 C          -0.1657   -6.2667   -0.3186 C.ar    1  UNL1        0.0355
      5 H          -0.6555   -7.9732   -1.6478 H       1  UNL1        0.0630
      6 C           0.3210   -6.0673    1.0212 C.ar    1  UNL1        0.0651
      7 C           0.5341   -4.7788    1.5352 C.ar    1  UNL1        0.1427
      8 C          -0.4558   -5.1693   -1.1790 C.ar    1  UNL1        0.1427
      9 C          -0.2386   -3.8785   -0.6662 C.ar    1  UNL1        0.0657
     10 C           0.2460   -3.6803    0.6760 C.ar    1  UNL1        0.0361
     11 O          -0.9336   -5.5131   -2.4073 O.3     1  UNL1       -0.4933
     12 O           1.0152   -4.4440    2.7688 O.3     1  UNL1       -0.4933
     13 C           0.7731   -5.3095    3.8714 C.3     1  UNL1        0.0789
     14 H           1.0265   -4.7312    4.7803 H       1  UNL1        0.0660
     15 H           1.4150   -6.2170    3.8434 H       1  UNL1        0.0660
     16 H          -0.2930   -5.6201    3.9212 H       1  UNL1        0.0660
     17 C          -0.8631   -4.5904   -3.4875 C.3     1  UNL1        0.0789
     18 H          -1.1231   -5.1626   -4.3981 H       1  UNL1        0.0660
     19 H           0.1591   -4.1699   -3.6016 H       1  UNL1        0.0660
     20 H          -1.5919   -3.7586   -3.3749 H       1  UNL1        0.0660
     21 C           0.3726   -2.3011    1.0192 C.ar    1  UNL1       -0.0350
     22 S          -0.5367   -2.3144   -1.4416 S.2     1  UNL1       -0.0839
     23 C          -0.0000   -1.4352   -0.0000 C.ar    1  UNL1        0.0280
     24 H           0.7335   -1.9672    2.0002 H       1  UNL1        0.0636
     25 H           0.0933   -9.6122    0.3514 H       1  UNL1        0.0694
     26 C           0.0000    0.0000    0.0000 C.ar    1  UNL1        0.0369
     27 S           0.0022    0.8994    1.5107 S.2     1  UNL1       -0.0943
     28 C           0.0012    2.4747    0.7276 C.ar    1  UNL1       -0.0093
     29 C          -0.0000    0.9082   -1.0647 C.ar    1  UNL1        0.0405
     30 C          -0.0015    2.2970   -0.6783 C.ar    1  UNL1        0.0306
     31 C           0.0016    0.8418   -2.4861 C.ar    1  UNL1        0.1532
     32 C           0.0015    2.1067   -3.1069 C.ar    1  UNL1        0.1325
     33 S          -0.0018    3.3542   -1.9657 S.2     1  UNL1       -0.0784
     34 C           0.0062    2.3611   -4.5600 C.2     1  UNL1        0.3485
     35 O           0.0092    1.4276   -5.3503 O.2     1  UNL1       -0.2443
     36 O           0.0094    3.6443   -5.0044 O.3     1  UNL1       -0.4640
     37 F           0.0055   -0.2723   -3.2463 F       1  UNL1       -0.2034
     38 C           0.0196    4.0030   -6.3350 C.3     1  UNL1        0.0820
     39 H           0.0202    5.1080   -6.3703 H       1  UNL1        0.0661
     40 H          -0.8714    3.6137   -6.8756 H       1  UNL1        0.0661
     41 H           0.9185    3.6131   -6.8619 H       1  UNL1        0.0661
     42 H           0.0012    3.3948    1.3215 H       1  UNL1        0.0705
@<TRIPOS>BOND
     1    40    38    1
     2    41    38    1
     3    39    38    1
     4    38    36    1
     5    35    34    2
     6    36    34    1
     7    34    32    1
     8    18    17    1
     9    19    17    1
    10    17    20    1
    11    17    11    1
    12    37    31    1
    13    32    31   ar
    14    32    33   ar
    15    31    29   ar
    16    11     8    1
    17    33    30   ar
    18     5     2    1
    19    22     9   ar
    20    22    23   ar
    21     8     9   ar
    22     8     4   ar
    23    29    30   ar
    24    29    26   ar
    25    30    28   ar
    26     9    10   ar
    27     2     4   ar
    28     2     1   ar
    29     4     6   ar
    30    26    23    1
    31    26    27   ar
    32    23    21   ar
    33     1    25    1
    34     1     3   ar
    35    10    21   ar
    36    10     7   ar
    37    28    42    1
    38    28    27   ar
    39    21    24    1
    40     6     7   ar
    41     6     3   ar
    42     7    12    1
    43    12    13    1
    44    15    13    1
    45    13    16    1
    46    13    14    1
