@<TRIPOS>MOLECULE
/home/robert/research/aromodel/code/impropers-ptb7in/XYZ_Files/fin_bdt_Phi_40_Theta_260_fin_ftt.xyz
 42 46 0 0 0
SMALL
GASTEIGER

@<TRIPOS>ATOM
      1 C           0.3556   -8.5160   -0.0254 C.ar    1  UNL1       -0.0230
      2 C          -0.7064   -7.6454    0.1714 C.ar    1  UNL1       -0.0433
      3 S           1.8728   -7.6290   -0.3100 S.2     1  UNL1       -0.0929
      4 C          -0.3425   -6.2667    0.1079 C.ar    1  UNL1        0.0355
      5 H          -1.7366   -7.9732    0.3594 H       1  UNL1        0.0630
      6 C           1.0615   -6.0673   -0.1388 C.ar    1  UNL1        0.0651
      7 C           1.6046   -4.7788   -0.2594 C.ar    1  UNL1        0.1427
      8 C          -1.2402   -5.1693    0.2442 C.ar    1  UNL1        0.1427
      9 C          -0.6975   -3.8785    0.1193 C.ar    1  UNL1        0.0654
     10 C           0.7085   -3.6803   -0.1248 C.ar    1  UNL1        0.0358
     11 O          -2.5329   -5.5131    0.5014 O.3     1  UNL1       -0.4933
     12 O           2.9030   -4.4440   -0.5190 O.3     1  UNL1       -0.4933
     13 C           3.9468   -5.3095   -0.0891 C.3     1  UNL1        0.0789
     14 H           4.8859   -4.7312   -0.1809 H       1  UNL1        0.0660
     15 H           4.0308   -6.2170   -0.7261 H       1  UNL1        0.0660
     16 H           3.8107   -5.6201    0.9694 H       1  UNL1        0.0660
     17 C          -3.5844   -4.5904    0.2444 C.3     1  UNL1        0.0789
     18 H          -4.5263   -5.1626    0.3423 H       1  UNL1        0.0660
     19 H          -3.5193   -4.1699   -0.7821 H       1  UNL1        0.0660
     20 H          -3.6000   -3.7586    0.9817 H       1  UNL1        0.0660
     21 C           1.0684   -2.3011   -0.1899 C.ar    1  UNL1       -0.0384
     22 S          -1.5129   -2.3144    0.2782 S.2     1  UNL1       -0.0876
     23 C          -0.0000   -1.4352   -0.0000 C.ar    1  UNL1        0.0137
     24 H           2.0971   -1.9672   -0.3751 H       1  UNL1        0.0633
     25 H           0.3623   -9.6122   -0.0309 H       1  UNL1        0.0694
     26 C           0.0000    0.0000    0.0000 C.3     1  UNL1        0.0996
     27 S           0.5799    0.6876    1.5107 S.3     1  UNL1       -0.1318
     28 C           1.5916    1.8950    0.7276 C.3     1  UNL1        0.0544
     29 C           0.5838    0.6958   -1.0647 C.ar    1  UNL1        0.0228
     30 C           1.4753    1.7606   -0.6783 C.ar    1  UNL1        0.0126
     31 C           0.5424    0.6438   -2.4861 C.ar    1  UNL1        0.1496
     32 C           1.3553    1.6128   -3.1069 C.ar    1  UNL1        0.1319
     33 S           2.1546    2.5706   -1.9657 S.2     1  UNL1       -0.0824
     34 C           1.5224    1.8048   -4.5600 C.2     1  UNL1        0.3485
     35 O           0.9247    1.0878   -5.3503 O.2     1  UNL1       -0.2443
     36 O           2.3497    2.7857   -5.0044 O.3     1  UNL1       -0.4640
     37 F          -0.1708   -0.2121   -3.2463 F       1  UNL1       -0.2037
     38 C           2.5881    3.0539   -6.3350 C.3     1  UNL1        0.0820
     39 H           3.2988    3.9000   -6.3703 H       1  UNL1        0.0661
     40 H           1.6553    3.3284   -6.8756 H       1  UNL1        0.0661
     41 H           3.0260    2.1774   -6.8619 H       1  UNL1        0.0661
     42 H           2.1831    2.5998    1.3215 H       1  UNL1        0.0481
@<TRIPOS>BOND
     1    40    38    1
     2    41    38    1
     3    39    38    1
     4    38    36    1
     5    35    34    2
     6    36    34    1
     7    34    32    1
     8    37    31    1
     9    32    31   ar
    10    32    33   ar
    11    31    29   ar
    12    33    30   ar
    13    29    30   ar
    14    29    26    1
    15    19    17    1
    16    15    13    1
    17    30    28    1
    18    12     7    1
    19    12    13    1
    20    24    21    1
    21     3     6   ar
    22     3     1   ar
    23     7     6   ar
    24     7    10   ar
    25    21    10   ar
    26    21    23   ar
    27    14    13    1
    28     6     4   ar
    29    10     9   ar
    30    13    16    1
    31    25     1    1
    32     1     2   ar
    33    23    26    1
    34    23    22   ar
    35    26    27    1
    36     4     2   ar
    37     4     8   ar
    38     9     8   ar
    39     9    22   ar
    40     2     5    1
    41     8    11    1
    42    17    18    1
    43    17    11    1
    44    17    20    1
    45    28    42    1
    46    28    27    1
