@<TRIPOS>MOLECULE
/home/robert/research/aromodel/code/impropers-ptb7in/XYZ_Files/fin_bdt_Phi_15_Theta_230_fin_ftt.xyz
 42 46 0 0 0
SMALL
GASTEIGER

@<TRIPOS>ATOM
      1 C           0.2953   -8.5160   -0.1998 C.ar    1  UNL1       -0.0230
      2 C          -0.5261   -7.6454    0.5016 C.ar    1  UNL1       -0.0433
      3 S           1.4669   -7.6290   -1.2048 S.2     1  UNL1       -0.0929
      4 C          -0.2427   -6.2667    0.2647 C.ar    1  UNL1        0.0355
      5 H          -1.3243   -7.9732    1.1796 H       1  UNL1        0.0630
      6 C           0.8499   -6.0673   -0.6510 C.ar    1  UNL1        0.0651
      7 C           1.2599   -4.7788   -1.0270 C.ar    1  UNL1        0.1427
      8 C          -0.9520   -5.1693    0.8316 C.ar    1  UNL1        0.1427
      9 C          -0.5445   -3.8785    0.4521 C.ar    1  UNL1        0.0657
     10 C           0.5511   -3.6803   -0.4623 C.ar    1  UNL1        0.0361
     11 O          -1.9429   -5.5131    1.7006 O.3     1  UNL1       -0.4933
     12 O           2.2546   -4.4440   -1.9009 O.3     1  UNL1       -0.4933
     13 C           3.3735   -5.3095   -2.0505 C.3     1  UNL1        0.0789
     14 H           4.1409   -4.7312   -2.5996 H       1  UNL1        0.0660
     15 H           3.1277   -6.2170   -2.6442 H       1  UNL1        0.0660
     16 H           3.7849   -5.6201   -1.0658 H       1  UNL1        0.0660
     17 C          -2.9819   -4.5904    2.0038 C.3     1  UNL1        0.0789
     18 H          -3.7487   -5.1626    2.5596 H       1  UNL1        0.0660
     19 H          -3.4388   -4.1699    1.0824 H       1  UNL1        0.0660
     20 H          -2.6269   -3.7586    2.6502 H       1  UNL1        0.0660
     21 C           0.8303   -2.3011   -0.6987 C.ar    1  UNL1       -0.0350
     22 S          -1.1711   -2.3144    0.9974 S.2     1  UNL1       -0.0839
     23 C           0.0000   -1.4352    0.0000 C.ar    1  UNL1        0.0280
     24 H           1.6287   -1.9672   -1.3734 H       1  UNL1        0.0636
     25 H           0.2983   -9.6122   -0.2079 H       1  UNL1        0.0694
     26 C           0.0000    0.0000    0.0000 C.ar    1  UNL1        0.0369
     27 S           0.2349    0.8682    1.5107 S.2     1  UNL1       -0.0943
     28 C           0.6416    2.3901    0.7276 C.ar    1  UNL1       -0.0093
     29 C           0.2350    0.8773   -1.0647 C.ar    1  UNL1        0.0405
     30 C           0.5930    2.2191   -0.6783 C.ar    1  UNL1        0.0306
     31 C           0.2195    0.8127   -2.4861 C.ar    1  UNL1        0.1532
     32 C           0.5467    2.0345   -3.1069 C.ar    1  UNL1        0.1325
     33 S           0.8663    3.2404   -1.9657 S.2     1  UNL1       -0.0784
     34 C           0.6171    2.2791   -4.5600 C.2     1  UNL1        0.3485
     35 O           0.3783    1.3766   -5.3503 O.2     1  UNL1       -0.2443
     36 O           0.9523    3.5177   -5.0044 O.3     1  UNL1       -0.4640
     37 F          -0.0651   -0.2644   -3.2463 F       1  UNL1       -0.2034
     38 C           1.0550    3.8616   -6.3350 C.3     1  UNL1        0.0820
     39 H           1.3415    4.9287   -6.3703 H       1  UNL1        0.0661
     40 H           0.0936    3.7161   -6.8756 H       1  UNL1        0.0661
     41 H           1.8223    3.2522   -6.8619 H       1  UNL1        0.0661
     42 H           0.8798    3.2788    1.3215 H       1  UNL1        0.0705
@<TRIPOS>BOND
     1    40    38    1
     2    41    38    1
     3    39    38    1
     4    38    36    1
     5    35    34    2
     6    36    34    1
     7    34    32    1
     8    37    31    1
     9    32    31   ar
    10    32    33   ar
    11    15    13    1
    12    14    13    1
    13    31    29   ar
    14    13    12    1
    15    13    16    1
    16    33    30   ar
    17    12     7    1
    18    24    21    1
    19     3     6   ar
    20     3     1   ar
    21    29    30   ar
    22    29    26   ar
    23     7     6   ar
    24     7    10   ar
    25    21    10   ar
    26    21    23   ar
    27    30    28   ar
    28     6     4   ar
    29    10     9   ar
    30    25     1    1
    31     1     2   ar
    32    23    26    1
    33    23    22   ar
    34    26    27   ar
    35     4     2   ar
    36     4     8   ar
    37     9     8   ar
    38     9    22   ar
    39     2     5    1
    40    28    42    1
    41    28    27   ar
    42     8    11    1
    43    19    17    1
    44    11    17    1
    45    17    18    1
    46    17    20    1
