@<TRIPOS>MOLECULE
/home/robert/research/aromodel/code/impropers-ptb7in/XYZ_Files/fin_bdt_Phi_20_Theta_300_fin_ftt.xyz
 42 46 0 0 0
SMALL
GASTEIGER

@<TRIPOS>ATOM
      1 C           0.2887   -8.5160    0.2091 C.ar    1  UNL1       -0.0230
      2 C          -0.6513   -7.6454   -0.3228 C.ar    1  UNL1       -0.0433
      3 S           1.6339   -7.6290    0.9664 S.2     1  UNL1       -0.0929
      4 C          -0.3317   -6.2667   -0.1376 C.ar    1  UNL1        0.0355
      5 H          -1.5614   -7.9732   -0.8410 H       1  UNL1        0.0630
      6 C           0.9024   -6.0673    0.5760 C.ar    1  UNL1        0.0651
      7 C           1.3959   -4.7788    0.8327 C.ar    1  UNL1        0.1427
      8 C          -1.1070   -5.1693   -0.6102 C.ar    1  UNL1        0.1427
      9 C          -0.6110   -3.8785   -0.3570 C.ar    1  UNL1        0.0657
     10 C           0.6230   -3.6803    0.3598 C.ar    1  UNL1        0.0361
     11 O          -2.2626   -5.5131   -1.2440 O.3     1  UNL1       -0.4933
     12 O           2.5574   -4.4440    1.4685 O.3     1  UNL1       -0.4933
     13 C           3.0807   -5.3095    2.4687 C.3     1  UNL1        0.0789
     14 H           3.8591   -4.7312    3.0020 H       1  UNL1        0.0660
     15 H           3.5545   -6.2170    2.0347 H       1  UNL1        0.0660
     16 H           2.2960   -5.6201    3.1921 H       1  UNL1        0.0660
     17 C          -2.9029   -4.5904   -2.1168 C.3     1  UNL1        0.0789
     18 H          -3.6874   -5.1626   -2.6472 H       1  UNL1        0.0660
     19 H          -2.1932   -4.1699   -2.8613 H       1  UNL1        0.0660
     20 H          -3.3888   -3.7586   -1.5620 H       1  UNL1        0.0660
     21 C           0.9406   -2.3011    0.5413 C.ar    1  UNL1       -0.0350
     22 S          -1.3378   -2.3144   -0.7593 S.2     1  UNL1       -0.0839
     23 C           0.0000   -1.4352    0.0000 C.ar    1  UNL1        0.0280
     24 H           1.8476   -1.9672    1.0607 H       1  UNL1        0.0636
     25 H           0.2974   -9.6122    0.2092 H       1  UNL1        0.0694
     26 C           0.0000    0.0000    0.0000 C.ar    1  UNL1        0.0369
     27 S           0.3097    0.8444    1.5107 S.2     1  UNL1       -0.0943
     28 C           0.8475    2.3251    0.7276 C.ar    1  UNL1       -0.0093
     29 C           0.3106    0.8535   -1.0647 C.ar    1  UNL1        0.0405
     30 C           0.7842    2.1590   -0.6783 C.ar    1  UNL1        0.0306
     31 C           0.2895    0.7905   -2.4861 C.ar    1  UNL1        0.1532
     32 C           0.7219    1.9791   -3.1069 C.ar    1  UNL1        0.1325
     33 S           1.1455    3.1525   -1.9657 S.2     1  UNL1       -0.0784
     34 C           0.8134    2.2166   -4.5600 C.2     1  UNL1        0.3485
     35 O           0.4969    1.3384   -5.3503 O.2     1  UNL1       -0.2443
     36 O           1.2553    3.4213   -5.0044 O.3     1  UNL1       -0.4640
     37 F          -0.0879   -0.2578   -3.2463 F       1  UNL1       -0.2034
     38 C           1.3875    3.7549   -6.3350 C.3     1  UNL1        0.0820
     39 H           1.7660    4.7931   -6.3703 H       1  UNL1        0.0661
     40 H           0.4171    3.6938   -6.8756 H       1  UNL1        0.0661
     41 H           2.0988    3.0810   -6.8619 H       1  UNL1        0.0661
     42 H           1.1622    3.1896    1.3215 H       1  UNL1        0.0705
@<TRIPOS>BOND
     1    40    38    1
     2    41    38    1
     3    39    38    1
     4    38    36    1
     5    35    34    2
     6    36    34    1
     7    34    32    1
     8    37    31    1
     9    32    31   ar
    10    32    33   ar
    11    19    17    1
    12    18    17    1
    13    31    29   ar
    14    17    20    1
    15    17    11    1
    16    33    30   ar
    17    11     8    1
    18    29    30   ar
    19    29    26   ar
    20     5     2    1
    21    22     9   ar
    22    22    23   ar
    23    30    28   ar
    24     8     9   ar
    25     8     4   ar
    26     9    10   ar
    27     2     4   ar
    28     2     1   ar
    29     4     6   ar
    30    26    23    1
    31    26    27   ar
    32    23    21   ar
    33     1    25    1
    34     1     3   ar
    35    10    21   ar
    36    10     7   ar
    37    21    24    1
    38     6     7   ar
    39     6     3   ar
    40    28    42    1
    41    28    27   ar
    42     7    12    1
    43    12    13    1
    44    15    13    1
    45    13    14    1
    46    13    16    1
