@<TRIPOS>MOLECULE
/home/robert/research/aromodel/code/impropers-ptb7in/XYZ_Files/fin_bdt_Phi_15_Theta_0_fin_ftt.xyz
 42 46 0 0 0
SMALL
GASTEIGER

@<TRIPOS>ATOM
      1 C           0.7056   -8.4868    0.3546 C.ar    1  UNL1       -0.0230
      2 C           0.6204   -7.6203   -0.7255 C.ar    1  UNL1       -0.0433
      3 S           0.6450   -7.6017    1.8982 S.2     1  UNL1       -0.0929
      4 C           0.4996   -6.2469   -0.3561 C.ar    1  UNL1        0.0355
      5 H           0.6427   -7.9474   -1.7727 H       1  UNL1        0.0630
      6 C           0.4814   -6.0484    1.0695 C.ar    1  UNL1        0.0651
      7 C           0.3934   -4.7626    1.6253 C.ar    1  UNL1        0.1427
      8 C           0.4255   -5.1519   -1.2638 C.ar    1  UNL1        0.1427
      9 C           0.3417   -3.8634   -0.7077 C.ar    1  UNL1        0.0657
     10 C           0.3207   -3.6663    0.7194 C.ar    1  UNL1        0.0361
     11 O           0.4268   -5.4968   -2.5815 O.3     1  UNL1       -0.4933
     12 O           0.3943   -4.4264    2.9490 O.3     1  UNL1       -0.4933
     13 C          -0.1326   -5.3414    3.9023 C.3     1  UNL1        0.0789
     14 H          -0.2554   -4.7717    4.8431 H       1  UNL1        0.0660
     15 H           0.5570   -6.1920    4.0956 H       1  UNL1        0.0660
     16 H          -1.1205   -5.7396    3.5845 H       1  UNL1        0.0660
     17 C           0.7804   -4.5397   -3.5723 C.3     1  UNL1        0.0789
     18 H           0.8971   -5.1038   -4.5170 H       1  UNL1        0.0660
     19 H           1.7395   -4.0336   -3.3300 H       1  UNL1        0.0660
     20 H          -0.0128   -3.7741   -3.7158 H       1  UNL1        0.0660
     21 C           0.2021   -2.2922    1.0852 C.ar    1  UNL1       -0.0350
     22 S           0.1904   -2.3066   -1.5382 S.2     1  UNL1       -0.0839
     23 C           0.1251   -1.4297   -0.0000 C.ar    1  UNL1        0.0280
     24 H           0.1766   -1.9593    2.1304 H       1  UNL1        0.0636
     25 H           0.8054   -9.5785    0.3622 H       1  UNL1        0.0694
     26 C           0.0000    0.0000    0.0000 C.ar    1  UNL1        0.0369
     27 S           0.1584    0.8854    1.5107 S.2     1  UNL1       -0.0943
     28 C           0.4309    2.4370    0.7276 C.ar    1  UNL1       -0.0093
     29 C           0.1577    0.8944   -1.0647 C.ar    1  UNL1        0.0405
     30 C           0.3974    2.2624   -0.6783 C.ar    1  UNL1        0.0306
     31 C           0.1478    0.8288   -2.4861 C.ar    1  UNL1        0.1532
     32 C           0.3673    2.0744   -3.1069 C.ar    1  UNL1        0.1325
     33 S           0.5806    3.3035   -1.9657 S.2     1  UNL1       -0.0784
     34 C           0.4161    2.3242   -4.5600 C.2     1  UNL1        0.3485
     35 O           0.2569    1.4044   -5.3503 O.2     1  UNL1       -0.2443
     36 O           0.6421    3.5873   -5.0044 O.3     1  UNL1       -0.4640
     37 F          -0.0418   -0.2691   -3.2463 F       1  UNL1       -0.2034
     38 C           0.7144    3.9388   -6.3350 C.3     1  UNL1        0.0820
     39 H           0.9068    5.0269   -6.3703 H       1  UNL1        0.0661
     40 H          -0.2307    3.7101   -6.8756 H       1  UNL1        0.0661
     41 H           1.5319    3.3987   -6.8619 H       1  UNL1        0.0661
     42 H           0.5907    3.3430    1.3215 H       1  UNL1        0.0705
@<TRIPOS>BOND
     1    40    38    1
     2    41    38    1
     3    39    38    1
     4    38    36    1
     5    35    34    2
     6    36    34    1
     7    34    32    1
     8    18    17    1
     9    20    17    1
    10    17    19    1
    11    17    11    1
    12    37    31    1
    13    32    31   ar
    14    32    33   ar
    15    11     8    1
    16    31    29   ar
    17    33    30   ar
    18     5     2    1
    19    22     9   ar
    20    22    23   ar
    21     8     9   ar
    22     8     4   ar
    23    29    30   ar
    24    29    26   ar
    25     2     4   ar
    26     2     1   ar
    27     9    10   ar
    28    30    28   ar
    29     4     6   ar
    30    23    26    1
    31    23    21   ar
    32    26    27   ar
    33     1    25    1
    34     1     3   ar
    35    10    21   ar
    36    10     7   ar
    37    28    42    1
    38    28    27   ar
    39     6     7   ar
    40     6     3   ar
    41    21    24    1
    42     7    12    1
    43    12    13    1
    44    16    13    1
    45    13    15    1
    46    13    14    1
