@<TRIPOS>MOLECULE
/home/robert/research/aromodel/code/impropers-ptb7in/XYZ_Files/fin_bdt_Phi_10_Theta_310_fin_ftt.xyz
 42 46 0 0 0
SMALL
GASTEIGER

@<TRIPOS>ATOM
      1 C           0.2480   -8.5160    0.2561 C.ar    1  UNL1       -0.0230
      2 C          -0.5854   -7.6454   -0.4310 C.ar    1  UNL1       -0.0433
      3 S           1.4413   -7.6290    1.2354 S.2     1  UNL1       -0.0929
      4 C          -0.3028   -6.2667   -0.1931 C.ar    1  UNL1        0.0355
      5 H          -1.3916   -7.9732   -1.0993 H       1  UNL1        0.0630
      6 C           0.7886   -6.0673    0.7239 C.ar    1  UNL1        0.0651
      7 C           1.2301   -4.7788    1.0625 C.ar    1  UNL1        0.1427
      8 C          -0.9843   -5.1693   -0.7931 C.ar    1  UNL1        0.1427
      9 C          -0.5397   -3.8785   -0.4577 C.ar    1  UNL1        0.0657
     10 C           0.5510   -3.6803    0.4625 C.ar    1  UNL1        0.0361
     11 O          -2.0122   -5.5131   -1.6180 O.3     1  UNL1       -0.4933
     12 O           2.2635   -4.4440    1.8902 O.3     1  UNL1       -0.4933
     13 C           2.6052   -5.3095    2.9662 C.3     1  UNL1        0.0789
     14 H           3.2791   -4.7312    3.6266 H       1  UNL1        0.0660
     15 H           3.1472   -6.2170    2.6210 H       1  UNL1        0.0660
     16 H           1.7069   -5.6201    3.5423 H       1  UNL1        0.0660
     17 C          -2.4912   -4.5904   -2.5887 C.3     1  UNL1        0.0789
     18 H          -3.1717   -5.1626   -3.2473 H       1  UNL1        0.0660
     19 H          -1.6631   -4.1699   -3.1987 H       1  UNL1        0.0660
     20 H          -3.0661   -3.7586   -2.1268 H       1  UNL1        0.0660
     21 C           0.8323   -2.3011    0.6964 C.ar    1  UNL1       -0.0350
     22 S          -1.1856   -2.3144   -0.9801 S.2     1  UNL1       -0.0839
     23 C          -0.0000   -1.4352   -0.0000 C.ar    1  UNL1        0.0280
     24 H           1.6353   -1.9672    1.3654 H       1  UNL1        0.0636
     25 H           0.2566   -9.6122    0.2577 H       1  UNL1        0.0694
     26 C           0.0000    0.0000    0.0000 C.ar    1  UNL1        0.0369
     27 S           0.1584    0.8854    1.5107 S.2     1  UNL1       -0.0943
     28 C           0.4309    2.4370    0.7276 C.ar    1  UNL1       -0.0093
     29 C           0.1577    0.8944   -1.0647 C.ar    1  UNL1        0.0405
     30 C           0.3974    2.2624   -0.6783 C.ar    1  UNL1        0.0306
     31 C           0.1478    0.8288   -2.4861 C.ar    1  UNL1        0.1532
     32 C           0.3673    2.0744   -3.1069 C.ar    1  UNL1        0.1325
     33 S           0.5806    3.3035   -1.9657 S.2     1  UNL1       -0.0784
     34 C           0.4161    2.3242   -4.5600 C.2     1  UNL1        0.3485
     35 O           0.2569    1.4044   -5.3503 O.2     1  UNL1       -0.2443
     36 O           0.6421    3.5873   -5.0044 O.3     1  UNL1       -0.4640
     37 F          -0.0418   -0.2691   -3.2463 F       1  UNL1       -0.2034
     38 C           0.7144    3.9388   -6.3350 C.3     1  UNL1        0.0820
     39 H           0.9068    5.0269   -6.3703 H       1  UNL1        0.0661
     40 H          -0.2307    3.7101   -6.8756 H       1  UNL1        0.0661
     41 H           1.5319    3.3987   -6.8619 H       1  UNL1        0.0661
     42 H           0.5907    3.3430    1.3215 H       1  UNL1        0.0705
@<TRIPOS>BOND
     1    40    38    1
     2    41    38    1
     3    39    38    1
     4    38    36    1
     5    35    34    2
     6    36    34    1
     7    34    32    1
     8    18    17    1
     9    37    31    1
    10    19    17    1
    11    32    31   ar
    12    32    33   ar
    13    17    20    1
    14    17    11    1
    15    31    29   ar
    16    33    30   ar
    17    11     8    1
    18     5     2    1
    19    29    30   ar
    20    29    26   ar
    21    22     9   ar
    22    22    23   ar
    23     8     9   ar
    24     8     4   ar
    25    30    28   ar
    26     9    10   ar
    27     2     4   ar
    28     2     1   ar
    29     4     6   ar
    30    26    23    1
    31    26    27   ar
    32    23    21   ar
    33     1    25    1
    34     1     3   ar
    35    10    21   ar
    36    10     7   ar
    37    21    24    1
    38     6     7   ar
    39     6     3   ar
    40    28    42    1
    41    28    27   ar
    42     7    12    1
    43    12    13    1
    44    15    13    1
    45    13    16    1
    46    13    14    1
