@<TRIPOS>MOLECULE
/home/robert/research/aromodel/code/impropers-ptb7in/XYZ_Files/fin_bdt_Phi_30_Theta_100_fin_ftt.xyz
 42 46 0 0 0
SMALL
GASTEIGER

@<TRIPOS>ATOM
      1 C          -0.3428   -8.5160   -0.0978 C.ar    1  UNL1       -0.0230
      2 C           0.7224   -7.6454    0.0806 C.ar    1  UNL1       -0.0433
      3 S          -1.8659   -7.6290   -0.3493 S.2     1  UNL1       -0.0929
      4 C           0.3588   -6.2667    0.0158 C.ar    1  UNL1        0.0355
      5 H           1.7548   -7.9732    0.2562 H       1  UNL1        0.0630
      6 C          -1.0449   -6.0673   -0.2326 C.ar    1  UNL1        0.0651
      7 C          -1.5966   -4.7788   -0.3050 C.ar    1  UNL1        0.1427
      8 C           1.2490   -5.1693    0.1947 C.ar    1  UNL1        0.1427
      9 C           0.6963   -3.8785    0.1265 C.ar    1  UNL1        0.0657
     10 C          -0.7084   -3.6803   -0.1250 C.ar    1  UNL1        0.0361
     11 O           2.5516   -5.5131    0.3952 O.3     1  UNL1       -0.4933
     12 O          -2.9054   -4.4440   -0.5052 O.3     1  UNL1       -0.4933
     13 C          -3.7392   -5.3095   -1.2662 C.3     1  UNL1        0.0789
     14 H          -4.6531   -4.7312   -1.5011 H       1  UNL1        0.0660
     15 H          -4.0360   -6.2170   -0.6963 H       1  UNL1        0.0660
     16 H          -3.2493   -5.6201   -2.2143 H       1  UNL1        0.0660
     17 C           3.4518   -4.5904    0.9963 C.3     1  UNL1        0.0789
     18 H           4.3704   -5.1626    1.2264 H       1  UNL1        0.0660
     19 H           3.0396   -4.1699    1.9386 H       1  UNL1        0.0660
     20 H           3.7187   -3.7586    0.3088 H       1  UNL1        0.0660
     21 C          -1.0690   -2.3011   -0.1869 C.ar    1  UNL1       -0.0350
     22 S           1.5168   -2.3144    0.2560 S.2     1  UNL1       -0.0839
     23 C          -0.0000   -1.4352   -0.0000 C.ar    1  UNL1        0.0280
     24 H          -2.0989   -1.9672   -0.3648 H       1  UNL1        0.0636
     25 H          -0.3510   -9.6122   -0.0949 H       1  UNL1        0.0694
     26 C           0.0000    0.0000    0.0000 C.ar    1  UNL1        0.0369
     27 S           0.4516    0.7778    1.5107 S.2     1  UNL1       -0.0943
     28 C           1.2384    2.1426    0.7276 C.ar    1  UNL1       -0.0093
     29 C           0.4541    0.7866   -1.0647 C.ar    1  UNL1        0.0405
     30 C           1.1472    1.9900   -0.6783 C.ar    1  UNL1        0.0306
     31 C           0.4223    0.7282   -2.4861 C.ar    1  UNL1        0.1532
     32 C           1.0546    1.8237   -3.1069 C.ar    1  UNL1        0.1325
     33 S           1.6755    2.9057   -1.9657 S.2     1  UNL1       -0.0784
     34 C           1.1859    2.0417   -4.5600 C.2     1  UNL1        0.3485
     35 O           0.7217    1.2318   -5.3503 O.2     1  UNL1       -0.2443
     36 O           1.8303    3.1514   -5.0044 O.3     1  UNL1       -0.4640
     37 F          -0.1313   -0.2386   -3.2463 F       1  UNL1       -0.2034
     38 C           2.0185    3.4570   -6.3350 C.3     1  UNL1        0.0820
     39 H           2.5715    4.4136   -6.3703 H       1  UNL1        0.0661
     40 H           1.0522    3.5652   -6.8756 H       1  UNL1        0.0661
     41 H           2.6019    2.6698   -6.8619 H       1  UNL1        0.0661
     42 H           1.6984    2.9393    1.3215 H       1  UNL1        0.0705
@<TRIPOS>BOND
     1    40    38    1
     2    41    38    1
     3    39    38    1
     4    38    36    1
     5    35    34    2
     6    36    34    1
     7    34    32    1
     8    37    31    1
     9    32    31   ar
    10    32    33   ar
    11    31    29   ar
    12    16    13    1
    13    33    30   ar
    14    14    13    1
    15    13    15    1
    16    13    12    1
    17    29    30   ar
    18    29    26   ar
    19    30    28   ar
    20    12     7    1
    21    24    21    1
    22     3     6   ar
    23     3     1   ar
    24     7     6   ar
    25     7    10   ar
    26     6     4   ar
    27    21    10   ar
    28    21    23   ar
    29    10     9   ar
    30     1    25    1
    31     1     2   ar
    32    23    26    1
    33    23    22   ar
    34    26    27   ar
    35     4     2   ar
    36     4     8   ar
    37     2     5    1
    38     9     8   ar
    39     9    22   ar
    40     8    11    1
    41    20    17    1
    42    11    17    1
    43    28    42    1
    44    28    27   ar
    45    17    18    1
    46    17    19    1
