@<TRIPOS>MOLECULE
/home/robert/research/aromodel/code/impropers-ptb7in/XYZ_Files/fin_bdt_Phi_40_Theta_170_fin_ftt.xyz
 42 46 0 0 0
SMALL
GASTEIGER

@<TRIPOS>ATOM
      1 C          -0.0254   -8.5160   -0.3556 C.ar    1  UNL1       -0.0230
      2 C           0.1714   -7.6454    0.7064 C.ar    1  UNL1       -0.0433
      3 S          -0.3100   -7.6290   -1.8728 S.2     1  UNL1       -0.0929
      4 C           0.1079   -6.2667    0.3425 C.ar    1  UNL1        0.0355
      5 H           0.3594   -7.9732    1.7366 H       1  UNL1        0.0630
      6 C          -0.1388   -6.0673   -1.0615 C.ar    1  UNL1        0.0651
      7 C          -0.2594   -4.7788   -1.6046 C.ar    1  UNL1        0.1427
      8 C           0.2442   -5.1693    1.2402 C.ar    1  UNL1        0.1427
      9 C           0.1193   -3.8785    0.6975 C.ar    1  UNL1        0.0654
     10 C          -0.1248   -3.6803   -0.7085 C.ar    1  UNL1        0.0358
     11 O           0.5014   -5.5131    2.5329 O.3     1  UNL1       -0.4933
     12 O          -0.5190   -4.4440   -2.9030 O.3     1  UNL1       -0.4933
     13 C          -0.0891   -5.3095   -3.9468 C.3     1  UNL1        0.0789
     14 H          -0.1809   -4.7312   -4.8859 H       1  UNL1        0.0660
     15 H          -0.7261   -6.2170   -4.0308 H       1  UNL1        0.0660
     16 H           0.9694   -5.6201   -3.8107 H       1  UNL1        0.0660
     17 C           0.2444   -4.5904    3.5844 C.3     1  UNL1        0.0789
     18 H           0.3423   -5.1626    4.5263 H       1  UNL1        0.0660
     19 H          -0.7821   -4.1699    3.5193 H       1  UNL1        0.0660
     20 H           0.9817   -3.7586    3.6000 H       1  UNL1        0.0660
     21 C          -0.1899   -2.3011   -1.0684 C.ar    1  UNL1       -0.0384
     22 S           0.2782   -2.3144    1.5129 S.2     1  UNL1       -0.0876
     23 C          -0.0000   -1.4352   -0.0000 C.ar    1  UNL1        0.0137
     24 H          -0.3751   -1.9672   -2.0971 H       1  UNL1        0.0633
     25 H          -0.0309   -9.6122   -0.3623 H       1  UNL1        0.0694
     26 C           0.0000    0.0000    0.0000 C.3     1  UNL1        0.0996
     27 S           0.5799    0.6876    1.5107 S.3     1  UNL1       -0.1318
     28 C           1.5916    1.8950    0.7276 C.3     1  UNL1        0.0544
     29 C           0.5838    0.6958   -1.0647 C.ar    1  UNL1        0.0228
     30 C           1.4753    1.7606   -0.6783 C.ar    1  UNL1        0.0126
     31 C           0.5424    0.6438   -2.4861 C.ar    1  UNL1        0.1496
     32 C           1.3553    1.6128   -3.1069 C.ar    1  UNL1        0.1319
     33 S           2.1546    2.5706   -1.9657 S.2     1  UNL1       -0.0824
     34 C           1.5224    1.8048   -4.5600 C.2     1  UNL1        0.3485
     35 O           0.9247    1.0878   -5.3503 O.2     1  UNL1       -0.2443
     36 O           2.3497    2.7857   -5.0044 O.3     1  UNL1       -0.4640
     37 F          -0.1708   -0.2121   -3.2463 F       1  UNL1       -0.2037
     38 C           2.5881    3.0539   -6.3350 C.3     1  UNL1        0.0820
     39 H           3.2988    3.9000   -6.3703 H       1  UNL1        0.0661
     40 H           1.6553    3.3284   -6.8756 H       1  UNL1        0.0661
     41 H           3.0260    2.1774   -6.8619 H       1  UNL1        0.0661
     42 H           2.1831    2.5998    1.3215 H       1  UNL1        0.0481
@<TRIPOS>BOND
     1    40    38    1
     2    41    38    1
     3    39    38    1
     4    38    36    1
     5    35    34    2
     6    36    34    1
     7    14    13    1
     8    34    32    1
     9    15    13    1
    10    13    16    1
    11    13    12    1
    12    37    31    1
    13    32    31   ar
    14    32    33   ar
    15    12     7    1
    16    31    29   ar
    17    24    21    1
    18    33    30   ar
    19     3     6   ar
    20     3     1   ar
    21     7     6   ar
    22     7    10   ar
    23    21    10   ar
    24    21    23   ar
    25    29    30   ar
    26    29    26    1
    27     6     4   ar
    28    10     9   ar
    29    30    28    1
    30    25     1    1
    31     1     2   ar
    32    23    26    1
    33    23    22   ar
    34    26    27    1
    35     4     2   ar
    36     4     8   ar
    37     9     8   ar
    38     9    22   ar
    39     2     5    1
    40    28    42    1
    41    28    27    1
    42     8    11    1
    43    11    17    1
    44    19    17    1
    45    17    20    1
    46    17    18    1
