@<TRIPOS>MOLECULE
/home/robert/research/aromodel/code/impropers-ptb7in/XYZ_Files/fin_bdt_Phi_50_Theta_70_fin_ftt.xyz
 42 46 0 0 0
SMALL
GASTEIGER

@<TRIPOS>ATOM
      1 C          -0.3458   -8.5160    0.0867 C.ar    1  UNL1       -0.0230
      2 C           0.6659   -7.6454   -0.2914 C.ar    1  UNL1       -0.0433
      3 S          -1.7906   -7.6290    0.6305 S.2     1  UNL1       -0.0929
      4 C           0.3186   -6.2667   -0.1657 C.ar    1  UNL1        0.0355
      5 H           1.6478   -7.9732   -0.6555 H       1  UNL1        0.0630
      6 C          -1.0212   -6.0673    0.3210 C.ar    1  UNL1        0.0651
      7 C          -1.5352   -4.7788    0.5341 C.ar    1  UNL1        0.1427
      8 C           1.1790   -5.1693   -0.4558 C.ar    1  UNL1        0.1427
      9 C           0.6662   -3.8785   -0.2386 C.ar    1  UNL1        0.0654
     10 C          -0.6760   -3.6803    0.2460 C.ar    1  UNL1        0.0358
     11 O           2.4073   -5.5131   -0.9336 O.3     1  UNL1       -0.4933
     12 O          -2.7688   -4.4440    1.0152 O.3     1  UNL1       -0.4933
     13 C          -3.8714   -5.3095    0.7731 C.3     1  UNL1        0.0789
     14 H          -4.7803   -4.7312    1.0265 H       1  UNL1        0.0660
     15 H          -3.8434   -6.2170    1.4150 H       1  UNL1        0.0660
     16 H          -3.9212   -5.6201   -0.2930 H       1  UNL1        0.0660
     17 C           3.4875   -4.5904   -0.8631 C.3     1  UNL1        0.0789
     18 H           4.3981   -5.1626   -1.1231 H       1  UNL1        0.0660
     19 H           3.6016   -4.1699    0.1591 H       1  UNL1        0.0660
     20 H           3.3749   -3.7586   -1.5919 H       1  UNL1        0.0660
     21 C          -1.0192   -2.3011    0.3726 C.ar    1  UNL1       -0.0384
     22 S           1.4416   -2.3144   -0.5367 S.2     1  UNL1       -0.0876
     23 C          -0.0000   -1.4352   -0.0000 C.ar    1  UNL1        0.0137
     24 H          -2.0002   -1.9672    0.7335 H       1  UNL1        0.0633
     25 H          -0.3514   -9.6122    0.0933 H       1  UNL1        0.0694
     26 C           0.0000    0.0000    0.0000 C.3     1  UNL1        0.0996
     27 S           0.6904    0.5764    1.5107 S.3     1  UNL1       -0.1318
     28 C           1.8965    1.5899    0.7276 C.3     1  UNL1        0.0544
     29 C           0.6957    0.5838   -1.0647 C.ar    1  UNL1        0.0228
     30 C           1.7586    1.4777   -0.6783 C.ar    1  UNL1        0.0126
     31 C           0.6459    0.5399   -2.4861 C.ar    1  UNL1        0.1496
     32 C           1.6148    1.3530   -3.1069 C.ar    1  UNL1        0.1319
     33 S           2.5683    2.1574   -1.9657 S.2     1  UNL1       -0.0824
     34 C           1.8127    1.5130   -4.5600 C.2     1  UNL1        0.3485
     35 O           1.0995    0.9107   -5.3503 O.2     1  UNL1       -0.2443
     36 O           2.7978    2.3353   -5.0044 O.3     1  UNL1       -0.4640
     37 F          -0.2050   -0.1793   -3.2463 F       1  UNL1       -0.2037
     38 C           3.0791    2.5581   -6.3350 C.3     1  UNL1        0.0820
     39 H           3.9259    3.2679   -6.3703 H       1  UNL1        0.0661
     40 H           2.2081    2.9904   -6.8756 H       1  UNL1        0.0661
     41 H           3.3581    1.6188   -6.8619 H       1  UNL1        0.0661
     42 H           2.6013    2.1812    1.3215 H       1  UNL1        0.0481
@<TRIPOS>BOND
     1    40    38    1
     2    41    38    1
     3    39    38    1
     4    38    36    1
     5    35    34    2
     6    36    34    1
     7    34    32    1
     8    37    31    1
     9    32    31   ar
    10    32    33   ar
    11    31    29   ar
    12    33    30   ar
    13    20    17    1
    14    18    17    1
    15    29    30   ar
    16    29    26    1
    17    11    17    1
    18    11     8    1
    19    17    19    1
    20    30    28    1
    21     5     2    1
    22    22     9   ar
    23    22    23   ar
    24     8     9   ar
    25     8     4   ar
    26    16    13    1
    27     2     4   ar
    28     2     1   ar
    29     9    10   ar
    30     4     6   ar
    31    26    23    1
    32    26    27    1
    33    23    21   ar
    34     1    25    1
    35     1     3   ar
    36    10    21   ar
    37    10     7   ar
    38     6     7   ar
    39     6     3   ar
    40    21    24    1
    41     7    12    1
    42    28    42    1
    43    28    27    1
    44    13    12    1
    45    13    14    1
    46    13    15    1
