@<TRIPOS>MOLECULE
/home/robert/research/aromodel/code/impropers-ptb7in/XYZ_Files/fin_bdt_Phi_15_Theta_150_fin_ftt.xyz
 42 46 0 0 0
SMALL
GASTEIGER

@<TRIPOS>ATOM
      1 C          -0.1455   -8.5160   -0.3255 C.ar    1  UNL1       -0.0230
      2 C           0.4026   -7.6454    0.6052 C.ar    1  UNL1       -0.0433
      3 S          -0.9318   -7.6290   -1.6539 S.2     1  UNL1       -0.0929
      4 C           0.2185   -6.2667    0.2850 C.ar    1  UNL1        0.0355
      5 H           0.9317   -7.9732    1.5090 H       1  UNL1        0.0630
      6 C          -0.4935   -6.0673   -0.9500 C.ar    1  UNL1        0.0651
      7 C          -0.7926   -4.7788   -1.4191 C.ar    1  UNL1        0.1427
      8 C           0.6536   -5.1693    1.0819 C.ar    1  UNL1        0.1427
      9 C           0.3507   -3.8785    0.6147 C.ar    1  UNL1        0.0657
     10 C          -0.3596   -3.6803   -0.6231 C.ar    1  UNL1        0.0361
     11 O           1.3374   -5.5131    2.2087 O.3     1  UNL1       -0.4933
     12 O          -1.4805   -4.4440   -2.5504 O.3     1  UNL1       -0.4933
     13 C          -1.4336   -5.3095   -3.6783 C.3     1  UNL1        0.0789
     14 H          -1.8410   -4.7312   -4.5294 H       1  UNL1        0.0660
     15 H          -2.0609   -6.2170   -3.5393 H       1  UNL1        0.0660
     16 H          -0.3924   -5.6201   -3.9125 H       1  UNL1        0.0660
     17 C           1.4556   -4.5904    3.2846 C.3     1  UNL1        0.0789
     18 H           1.8698   -5.1626    4.1363 H       1  UNL1        0.0660
     19 H           0.4688   -4.1699    3.5746 H       1  UNL1        0.0660
     20 H           2.1538   -3.7586    3.0472 H       1  UNL1        0.0660
     21 C          -0.5439   -2.3011   -0.9390 C.ar    1  UNL1       -0.0350
     22 S           0.7789   -2.3144    1.3265 S.2     1  UNL1       -0.0839
     23 C           0.0000   -1.4352    0.0000 C.ar    1  UNL1        0.0280
     24 H          -1.0697   -1.9672   -1.8424 H       1  UNL1        0.0636
     25 H          -0.1530   -9.6122   -0.3299 H       1  UNL1        0.0694
     26 C           0.0000    0.0000    0.0000 C.ar    1  UNL1        0.0369
     27 S           0.2349    0.8682    1.5107 S.2     1  UNL1       -0.0943
     28 C           0.6416    2.3901    0.7276 C.ar    1  UNL1       -0.0093
     29 C           0.2350    0.8773   -1.0647 C.ar    1  UNL1        0.0405
     30 C           0.5930    2.2191   -0.6783 C.ar    1  UNL1        0.0306
     31 C           0.2195    0.8127   -2.4861 C.ar    1  UNL1        0.1532
     32 C           0.5467    2.0345   -3.1069 C.ar    1  UNL1        0.1325
     33 S           0.8663    3.2404   -1.9657 S.2     1  UNL1       -0.0784
     34 C           0.6171    2.2791   -4.5600 C.2     1  UNL1        0.3485
     35 O           0.3783    1.3766   -5.3503 O.2     1  UNL1       -0.2443
     36 O           0.9523    3.5177   -5.0044 O.3     1  UNL1       -0.4640
     37 F          -0.0651   -0.2644   -3.2463 F       1  UNL1       -0.2034
     38 C           1.0550    3.8616   -6.3350 C.3     1  UNL1        0.0820
     39 H           1.3415    4.9287   -6.3703 H       1  UNL1        0.0661
     40 H           0.0936    3.7161   -6.8756 H       1  UNL1        0.0661
     41 H           1.8223    3.2522   -6.8619 H       1  UNL1        0.0661
     42 H           0.8798    3.2788    1.3215 H       1  UNL1        0.0705
@<TRIPOS>BOND
     1    40    38    1
     2    41    38    1
     3    39    38    1
     4    38    36    1
     5    35    34    2
     6    36    34    1
     7    34    32    1
     8    14    13    1
     9    16    13    1
    10    13    15    1
    11    13    12    1
    12    37    31    1
    13    32    31   ar
    14    32    33   ar
    15    12     7    1
    16    31    29   ar
    17    33    30   ar
    18    24    21    1
    19     3     6   ar
    20     3     1   ar
    21     7     6   ar
    22     7    10   ar
    23    29    30   ar
    24    29    26   ar
    25     6     4   ar
    26    21    10   ar
    27    21    23   ar
    28    30    28   ar
    29    10     9   ar
    30    25     1    1
    31     1     2   ar
    32    23    26    1
    33    23    22   ar
    34    26    27   ar
    35     4     2   ar
    36     4     8   ar
    37     2     5    1
    38     9     8   ar
    39     9    22   ar
    40    28    42    1
    41    28    27   ar
    42     8    11    1
    43    11    17    1
    44    20    17    1
    45    17    19    1
    46    17    18    1
