@<TRIPOS>MOLECULE
/home/robert/research/aromodel/code/impropers-ptb7in/XYZ_Files/fin_bdt_Phi_40_Theta_0_fin_ftt.xyz
 42 46 0 0 0
SMALL
GASTEIGER

@<TRIPOS>ATOM
      1 C           1.4426   -8.3930    0.3546 C.ar    1  UNL1       -0.0230
      2 C           1.2822   -7.5373   -0.7255 C.ar    1  UNL1       -0.0433
      3 S           1.3051   -7.5166    1.8982 S.2     1  UNL1       -0.0929
      4 C           1.0422   -6.1796   -0.3561 C.ar    1  UNL1        0.0355
      5 H           1.3329   -7.8612   -1.7727 H       1  UNL1        0.0630
      6 C           1.0067   -5.9834    1.0695 C.ar    1  UNL1        0.0651
      7 C           0.8070   -4.7102    1.6253 C.ar    1  UNL1        0.1427
      8 C           0.8729   -5.0952   -1.2638 C.ar    1  UNL1        0.1427
      9 C           0.6771   -3.8189   -0.7077 C.ar    1  UNL1        0.0654
     10 C           0.6390   -3.6244    0.7194 C.ar    1  UNL1        0.0358
     11 O           0.9042   -5.4387   -2.5815 O.3     1  UNL1       -0.4933
     12 O           0.7786   -4.3752    2.9490 O.3     1  UNL1       -0.4933
     13 C           0.3334   -5.3326    3.9023 C.3     1  UNL1        0.0789
     14 H           0.1614   -4.7758    4.8431 H       1  UNL1        0.0660
     15 H           1.0945   -6.1199    4.0956 H       1  UNL1        0.0660
     16 H          -0.6160   -5.8154    3.5845 H       1  UNL1        0.0660
     17 C           1.1730   -4.4544   -3.5723 C.3     1  UNL1        0.0789
     18 H           1.3385   -5.0062   -4.5170 H       1  UNL1        0.0660
     19 H           2.0844   -3.8667   -3.3300 H       1  UNL1        0.0660
     20 H           0.3162   -3.7608   -3.7158 H       1  UNL1        0.0660
     21 C           0.4011   -2.2659    1.0852 C.ar    1  UNL1       -0.0384
     22 S           0.3908   -2.2812   -1.5382 S.2     1  UNL1       -0.0876
     23 C           0.2492   -1.4134    0.0000 C.ar    1  UNL1        0.0137
     24 H           0.3467   -1.9365    2.1304 H       1  UNL1        0.0633
     25 H           1.6372   -9.4718    0.3622 H       1  UNL1        0.0694
     26 C           0.0000    0.0000    0.0000 C.3     1  UNL1        0.0996
     27 S           0.4516    0.7778    1.5107 S.3     1  UNL1       -0.1318
     28 C           1.2384    2.1426    0.7276 C.3     1  UNL1        0.0544
     29 C           0.4541    0.7866   -1.0647 C.ar    1  UNL1        0.0228
     30 C           1.1472    1.9900   -0.6783 C.ar    1  UNL1        0.0126
     31 C           0.4223    0.7282   -2.4861 C.ar    1  UNL1        0.1496
     32 C           1.0546    1.8237   -3.1069 C.ar    1  UNL1        0.1319
     33 S           1.6755    2.9057   -1.9657 S.2     1  UNL1       -0.0824
     34 C           1.1859    2.0417   -4.5600 C.2     1  UNL1        0.3485
     35 O           0.7217    1.2318   -5.3503 O.2     1  UNL1       -0.2443
     36 O           1.8303    3.1514   -5.0044 O.3     1  UNL1       -0.4640
     37 F          -0.1313   -0.2386   -3.2463 F       1  UNL1       -0.2037
     38 C           2.0185    3.4570   -6.3350 C.3     1  UNL1        0.0820
     39 H           2.5715    4.4136   -6.3703 H       1  UNL1        0.0661
     40 H           1.0522    3.5652   -6.8756 H       1  UNL1        0.0661
     41 H           2.6019    2.6698   -6.8619 H       1  UNL1        0.0661
     42 H           1.6984    2.9393    1.3215 H       1  UNL1        0.0481
@<TRIPOS>BOND
     1    40    38    1
     2    41    38    1
     3    39    38    1
     4    38    36    1
     5    35    34    2
     6    36    34    1
     7    34    32    1
     8    18    17    1
     9    20    17    1
    10    17    19    1
    11    17    11    1
    12    37    31    1
    13    32    31   ar
    14    32    33   ar
    15    11     8    1
    16    31    29   ar
    17    33    30   ar
    18     5     2    1
    19    22     9   ar
    20    22    23   ar
    21     8     9   ar
    22     8     4   ar
    23    29    30   ar
    24    29    26    1
    25     2     4   ar
    26     2     1   ar
    27     9    10   ar
    28    30    28    1
    29     4     6   ar
    30    23    26    1
    31    23    21   ar
    32    26    27    1
    33     1    25    1
    34     1     3   ar
    35    10    21   ar
    36    10     7   ar
    37    28    42    1
    38    28    27    1
    39     6     7   ar
    40     6     3   ar
    41    21    24    1
    42     7    12    1
    43    12    13    1
    44    16    13    1
    45    13    15    1
    46    13    14    1
