@<TRIPOS>MOLECULE
/home/robert/research/aromodel/code/impropers-ptb7in/XYZ_Files/fin_bdt_Phi_50_Theta_300_fin_ftt.xyz
 42 46 0 0 0
SMALL
GASTEIGER

@<TRIPOS>ATOM
      1 C           0.2887   -8.5160    0.2091 C.ar    1  UNL1       -0.0230
      2 C          -0.6513   -7.6454   -0.3228 C.ar    1  UNL1       -0.0433
      3 S           1.6339   -7.6290    0.9664 S.2     1  UNL1       -0.0929
      4 C          -0.3317   -6.2667   -0.1376 C.ar    1  UNL1        0.0355
      5 H          -1.5614   -7.9732   -0.8410 H       1  UNL1        0.0630
      6 C           0.9024   -6.0673    0.5760 C.ar    1  UNL1        0.0651
      7 C           1.3959   -4.7788    0.8327 C.ar    1  UNL1        0.1427
      8 C          -1.1070   -5.1693   -0.6102 C.ar    1  UNL1        0.1427
      9 C          -0.6110   -3.8785   -0.3570 C.ar    1  UNL1        0.0654
     10 C           0.6230   -3.6803    0.3598 C.ar    1  UNL1        0.0358
     11 O          -2.2626   -5.5131   -1.2440 O.3     1  UNL1       -0.4933
     12 O           2.5574   -4.4440    1.4685 O.3     1  UNL1       -0.4933
     13 C           3.0807   -5.3095    2.4687 C.3     1  UNL1        0.0789
     14 H           3.8591   -4.7312    3.0020 H       1  UNL1        0.0660
     15 H           3.5545   -6.2170    2.0347 H       1  UNL1        0.0660
     16 H           2.2960   -5.6201    3.1921 H       1  UNL1        0.0660
     17 C          -2.9029   -4.5904   -2.1168 C.3     1  UNL1        0.0789
     18 H          -3.6874   -5.1626   -2.6472 H       1  UNL1        0.0660
     19 H          -2.1932   -4.1699   -2.8613 H       1  UNL1        0.0660
     20 H          -3.3888   -3.7586   -1.5620 H       1  UNL1        0.0660
     21 C           0.9406   -2.3011    0.5413 C.ar    1  UNL1       -0.0384
     22 S          -1.3378   -2.3144   -0.7593 S.2     1  UNL1       -0.0876
     23 C          -0.0000   -1.4352   -0.0000 C.ar    1  UNL1        0.0137
     24 H           1.8476   -1.9672    1.0607 H       1  UNL1        0.0633
     25 H           0.2974   -9.6122    0.2092 H       1  UNL1        0.0694
     26 C           0.0000    0.0000    0.0000 C.3     1  UNL1        0.0996
     27 S           0.6904    0.5764    1.5107 S.3     1  UNL1       -0.1318
     28 C           1.8965    1.5899    0.7276 C.3     1  UNL1        0.0544
     29 C           0.6957    0.5838   -1.0647 C.ar    1  UNL1        0.0228
     30 C           1.7586    1.4777   -0.6783 C.ar    1  UNL1        0.0126
     31 C           0.6459    0.5399   -2.4861 C.ar    1  UNL1        0.1496
     32 C           1.6148    1.3530   -3.1069 C.ar    1  UNL1        0.1319
     33 S           2.5683    2.1574   -1.9657 S.2     1  UNL1       -0.0824
     34 C           1.8127    1.5130   -4.5600 C.2     1  UNL1        0.3485
     35 O           1.0995    0.9107   -5.3503 O.2     1  UNL1       -0.2443
     36 O           2.7978    2.3353   -5.0044 O.3     1  UNL1       -0.4640
     37 F          -0.2050   -0.1793   -3.2463 F       1  UNL1       -0.2037
     38 C           3.0791    2.5581   -6.3350 C.3     1  UNL1        0.0820
     39 H           3.9259    3.2679   -6.3703 H       1  UNL1        0.0661
     40 H           2.2081    2.9904   -6.8756 H       1  UNL1        0.0661
     41 H           3.3581    1.6188   -6.8619 H       1  UNL1        0.0661
     42 H           2.6013    2.1812    1.3215 H       1  UNL1        0.0481
@<TRIPOS>BOND
     1    40    38    1
     2    41    38    1
     3    39    38    1
     4    38    36    1
     5    35    34    2
     6    36    34    1
     7    34    32    1
     8    37    31    1
     9    32    31   ar
    10    32    33   ar
    11    19    17    1
    12    18    17    1
    13    31    29   ar
    14    17    20    1
    15    17    11    1
    16    33    30   ar
    17    11     8    1
    18    29    30   ar
    19    29    26    1
    20     5     2    1
    21    22     9   ar
    22    22    23   ar
    23    30    28    1
    24     8     9   ar
    25     8     4   ar
    26     9    10   ar
    27     2     4   ar
    28     2     1   ar
    29     4     6   ar
    30    26    23    1
    31    26    27    1
    32    23    21   ar
    33     1    25    1
    34     1     3   ar
    35    10    21   ar
    36    10     7   ar
    37    21    24    1
    38     6     7   ar
    39     6     3   ar
    40    28    42    1
    41    28    27    1
    42     7    12    1
    43    12    13    1
    44    15    13    1
    45    13    14    1
    46    13    16    1
