@<TRIPOS>MOLECULE
/home/robert/research/aromodel/code/impropers-ptb7in/XYZ_Files/fin_bdt_Phi_5_Theta_130_fin_ftt.xyz
 42 46 0 0 0
SMALL
GASTEIGER

@<TRIPOS>ATOM
      1 C          -0.2480   -8.5160   -0.2561 C.ar    1  UNL1       -0.0230
      2 C           0.5854   -7.6454    0.4310 C.ar    1  UNL1       -0.0433
      3 S          -1.4413   -7.6290   -1.2354 S.2     1  UNL1       -0.0929
      4 C           0.3028   -6.2667    0.1931 C.ar    1  UNL1        0.0355
      5 H           1.3916   -7.9732    1.0993 H       1  UNL1        0.0630
      6 C          -0.7886   -6.0673   -0.7239 C.ar    1  UNL1        0.0651
      7 C          -1.2301   -4.7788   -1.0625 C.ar    1  UNL1        0.1427
      8 C           0.9843   -5.1693    0.7931 C.ar    1  UNL1        0.1427
      9 C           0.5397   -3.8785    0.4577 C.ar    1  UNL1        0.0657
     10 C          -0.5510   -3.6803   -0.4625 C.ar    1  UNL1        0.0361
     11 O           2.0122   -5.5131    1.6180 O.3     1  UNL1       -0.4933
     12 O          -2.2635   -4.4440   -1.8902 O.3     1  UNL1       -0.4933
     13 C          -2.6052   -5.3095   -2.9662 C.3     1  UNL1        0.0789
     14 H          -3.2791   -4.7312   -3.6266 H       1  UNL1        0.0660
     15 H          -3.1472   -6.2170   -2.6210 H       1  UNL1        0.0660
     16 H          -1.7069   -5.6201   -3.5423 H       1  UNL1        0.0660
     17 C           2.4912   -4.5904    2.5887 C.3     1  UNL1        0.0789
     18 H           3.1717   -5.1626    3.2473 H       1  UNL1        0.0660
     19 H           1.6631   -4.1699    3.1987 H       1  UNL1        0.0660
     20 H           3.0661   -3.7586    2.1268 H       1  UNL1        0.0660
     21 C          -0.8323   -2.3011   -0.6964 C.ar    1  UNL1       -0.0350
     22 S           1.1856   -2.3144    0.9801 S.2     1  UNL1       -0.0839
     23 C          -0.0000   -1.4352   -0.0000 C.ar    1  UNL1        0.0280
     24 H          -1.6353   -1.9672   -1.3654 H       1  UNL1        0.0636
     25 H          -0.2566   -9.6122   -0.2577 H       1  UNL1        0.0694
     26 C           0.0000    0.0000    0.0000 C.ar    1  UNL1        0.0369
     27 S           0.0806    0.8958    1.5107 S.2     1  UNL1       -0.0943
     28 C           0.2168    2.4652    0.7276 C.ar    1  UNL1       -0.0093
     29 C           0.0791    0.9048   -1.0647 C.ar    1  UNL1        0.0405
     30 C           0.1987    2.2884   -0.6783 C.ar    1  UNL1        0.0306
     31 C           0.0750    0.8385   -2.4861 C.ar    1  UNL1        0.1532
     32 C           0.1851    2.0985   -3.1069 C.ar    1  UNL1        0.1325
     33 S           0.2905    3.3416   -1.9657 S.2     1  UNL1       -0.0784
     34 C           0.2119    2.3516   -4.5600 C.2     1  UNL1        0.3485
     35 O           0.1335    1.4214   -5.3503 O.2     1  UNL1       -0.2443
     36 O           0.3270    3.6296   -5.0044 O.3     1  UNL1       -0.4640
     37 F          -0.0182   -0.2717   -3.2463 F       1  UNL1       -0.2034
     38 C           0.3684    3.9861   -6.3350 C.3     1  UNL1        0.0820
     39 H           0.4653    5.0868   -6.3703 H       1  UNL1        0.0661
     40 H          -0.5531    3.6759   -6.8756 H       1  UNL1        0.0661
     41 H           1.2299    3.5193   -6.8619 H       1  UNL1        0.0661
     42 H           0.2971    3.3817    1.3215 H       1  UNL1        0.0705
@<TRIPOS>BOND
     1    40    38    1
     2    41    38    1
     3    39    38    1
     4    38    36    1
     5    35    34    2
     6    36    34    1
     7    34    32    1
     8    14    13    1
     9    16    13    1
    10    37    31    1
    11    32    31   ar
    12    32    33   ar
    13    13    15    1
    14    13    12    1
    15    31    29   ar
    16    33    30   ar
    17    12     7    1
    18    24    21    1
    19     3     6   ar
    20     3     1   ar
    21    29    30   ar
    22    29    26   ar
    23     7     6   ar
    24     7    10   ar
    25     6     4   ar
    26    21    10   ar
    27    21    23   ar
    28    30    28   ar
    29    10     9   ar
    30    25     1    1
    31     1     2   ar
    32    23    26    1
    33    23    22   ar
    34    26    27   ar
    35     4     2   ar
    36     4     8   ar
    37     2     5    1
    38     9     8   ar
    39     9    22   ar
    40    28    42    1
    41    28    27   ar
    42     8    11    1
    43    11    17    1
    44    20    17    1
    45    17    19    1
    46    17    18    1
