@<TRIPOS>MOLECULE
/home/robert/research/aromodel/code/impropers-ptb7in/XYZ_Files/fin_bdt_Phi_25_Theta_210_fin_ftt.xyz
 42 46 0 0 0
SMALL
GASTEIGER

@<TRIPOS>ATOM
      1 C           0.2091   -8.5160   -0.2887 C.ar    1  UNL1       -0.0230
      2 C          -0.3228   -7.6454    0.6513 C.ar    1  UNL1       -0.0433
      3 S           0.9664   -7.6290   -1.6339 S.2     1  UNL1       -0.0929
      4 C          -0.1376   -6.2667    0.3317 C.ar    1  UNL1        0.0355
      5 H          -0.8410   -7.9732    1.5614 H       1  UNL1        0.0630
      6 C           0.5760   -6.0673   -0.9024 C.ar    1  UNL1        0.0651
      7 C           0.8327   -4.7788   -1.3959 C.ar    1  UNL1        0.1427
      8 C          -0.6102   -5.1693    1.1070 C.ar    1  UNL1        0.1427
      9 C          -0.3570   -3.8785    0.6110 C.ar    1  UNL1        0.0657
     10 C           0.3598   -3.6803   -0.6230 C.ar    1  UNL1        0.0361
     11 O          -1.2440   -5.5131    2.2626 O.3     1  UNL1       -0.4933
     12 O           1.4685   -4.4440   -2.5574 O.3     1  UNL1       -0.4933
     13 C           2.4687   -5.3095   -3.0807 C.3     1  UNL1        0.0789
     14 H           3.0020   -4.7312   -3.8591 H       1  UNL1        0.0660
     15 H           2.0347   -6.2170   -3.5545 H       1  UNL1        0.0660
     16 H           3.1921   -5.6201   -2.2960 H       1  UNL1        0.0660
     17 C          -2.1168   -4.5904    2.9029 C.3     1  UNL1        0.0789
     18 H          -2.6472   -5.1626    3.6874 H       1  UNL1        0.0660
     19 H          -2.8613   -4.1699    2.1932 H       1  UNL1        0.0660
     20 H          -1.5620   -3.7586    3.3888 H       1  UNL1        0.0660
     21 C           0.5413   -2.3011   -0.9406 C.ar    1  UNL1       -0.0350
     22 S          -0.7593   -2.3144    1.3378 S.2     1  UNL1       -0.0839
     23 C          -0.0000   -1.4352   -0.0000 C.ar    1  UNL1        0.0280
     24 H           1.0607   -1.9672   -1.8476 H       1  UNL1        0.0636
     25 H           0.2092   -9.6122   -0.2974 H       1  UNL1        0.0694
     26 C           0.0000    0.0000    0.0000 C.ar    1  UNL1        0.0369
     27 S           0.3821    0.8142    1.5107 S.2     1  UNL1       -0.0943
     28 C           1.0469    2.2424    0.7276 C.ar    1  UNL1       -0.0093
     29 C           0.3838    0.8231   -1.0647 C.ar    1  UNL1        0.0405
     30 C           0.9694    2.0825   -0.6783 C.ar    1  UNL1        0.0306
     31 C           0.3572    0.7623   -2.4861 C.ar    1  UNL1        0.1532
     32 C           0.8917    1.9087   -3.1069 C.ar    1  UNL1        0.1325
     33 S           1.4159    3.0407   -1.9657 S.2     1  UNL1       -0.0784
     34 C           1.0035    2.1373   -4.5600 C.2     1  UNL1        0.3485
     35 O           0.6116    1.2900   -5.3503 O.2     1  UNL1       -0.2443
     36 O           1.5487    3.2989   -5.0044 O.3     1  UNL1       -0.4640
     37 F          -0.1101   -0.2491   -3.2463 F       1  UNL1       -0.2034
     38 C           1.7095    3.6197   -6.3350 C.3     1  UNL1        0.0820
     39 H           2.1770    4.6209   -6.3703 H       1  UNL1        0.0661
     40 H           0.7374    3.6434   -6.8756 H       1  UNL1        0.0661
     41 H           2.3594    2.8864   -6.8619 H       1  UNL1        0.0661
     42 H           1.4358    3.0762    1.3215 H       1  UNL1        0.0705
@<TRIPOS>BOND
     1    40    38    1
     2    41    38    1
     3    39    38    1
     4    38    36    1
     5    35    34    2
     6    36    34    1
     7    34    32    1
     8    14    13    1
     9    15    13    1
    10    37    31    1
    11    32    31   ar
    12    32    33   ar
    13    13    12    1
    14    13    16    1
    15    12     7    1
    16    31    29   ar
    17    33    30   ar
    18    24    21    1
    19     3     6   ar
    20     3     1   ar
    21     7     6   ar
    22     7    10   ar
    23    29    30   ar
    24    29    26   ar
    25    21    10   ar
    26    21    23   ar
    27     6     4   ar
    28    30    28   ar
    29    10     9   ar
    30    25     1    1
    31     1     2   ar
    32    23    26    1
    33    23    22   ar
    34    26    27   ar
    35     4     2   ar
    36     4     8   ar
    37     9     8   ar
    38     9    22   ar
    39     2     5    1
    40    28    42    1
    41    28    27   ar
    42     8    11    1
    43    19    17    1
    44    11    17    1
    45    17    20    1
    46    17    18    1
