@<TRIPOS>MOLECULE
/home/robert/research/aromodel/code/impropers-ptb7in/XYZ_Files/fin_bdt_Phi_0_Theta_0_fin_ftt.xyz
 42 46 0 0 0
SMALL
GASTEIGER

@<TRIPOS>ATOM
      1 C          -8.1565   -2.4674    0.1802 C.ar    1  UNL1       -0.0230
      2 C          -7.5836   -1.2048    0.1326 C.ar    1  UNL1       -0.0433
      3 S          -6.9118   -3.7399    0.2123 S.2     1  UNL1       -0.0929
      4 C          -6.1564   -1.2180    0.1273 C.ar    1  UNL1        0.0355
      5 H          -8.1628   -0.2733    0.1016 H       1  UNL1        0.0630
      6 C          -5.6068   -2.5472    0.1828 C.ar    1  UNL1        0.0651
      7 C          -4.2204   -2.7642    0.1613 C.ar    1  UNL1        0.1427
      8 C          -5.3210   -0.0668    0.0524 C.ar    1  UNL1        0.1427
      9 C          -3.9322   -0.2838    0.0266 C.ar    1  UNL1        0.0657
     10 C          -3.3834   -1.6147    0.0850 C.ar    1  UNL1        0.0361
     11 O          -5.9832    1.1233    0.0331 O.3     1  UNL1       -0.4933
     12 O          -3.5653   -3.9625    0.1796 O.3     1  UNL1       -0.4933
     13 C          -4.1622   -5.0748    0.8353 C.3     1  UNL1        0.0789
     14 H          -3.3668   -5.8375    0.9372 H       1  UNL1        0.0660
     15 H          -4.9954   -5.5147    0.2446 H       1  UNL1        0.0660
     16 H          -4.5377   -4.8012    1.8450 H       1  UNL1        0.0660
     17 C          -5.3396    2.2935   -0.4561 C.3     1  UNL1        0.0789
     18 H          -6.1301    3.0616   -0.5527 H       1  UNL1        0.0660
     19 H          -4.8764    2.1212   -1.4514 H       1  UNL1        0.0660
     20 H          -4.5668    2.6710    0.2482 H       1  UNL1        0.0660
     21 C          -1.9566   -1.6243    0.0772 C.ar    1  UNL1       -0.0350
     22 S          -2.6254    0.9107   -0.0158 S.2     1  UNL1       -0.0839
     23 C          -1.3896   -0.3583    0.0218 C.ar    1  UNL1        0.0280
     24 H          -1.3720   -2.5523    0.1107 H       1  UNL1        0.0636
     25 H          -9.2160   -2.7486    0.1928 H       1  UNL1        0.0694
     26 C           0.0000    0.0000    0.0000 C.ar    1  UNL1        0.0369
     27 S           1.2486   -1.2370    0.0452 S.2     1  UNL1       -0.0943
     28 C           2.5780   -0.0861   -0.0093 C.ar    1  UNL1       -0.0093
     29 C           0.6131    1.2567   -0.0568 C.ar    1  UNL1        0.0405
     30 C           2.0544    1.2297   -0.0607 C.ar    1  UNL1        0.0306
     31 C           0.1934    2.6152   -0.1149 C.ar    1  UNL1        0.1532
     32 C           1.2628    3.5314   -0.1590 C.ar    1  UNL1        0.1325
     33 S           2.7560    2.7390   -0.1285 S.2     1  UNL1       -0.0784
     34 C           1.1458    5.0004   -0.2262 C.2     1  UNL1        0.3485
     35 O           0.0443    5.5318   -0.2470 O.2     1  UNL1       -0.2443
     36 O           2.2771    5.7505   -0.2669 O.3     1  UNL1       -0.4640
     37 F          -1.0754    3.0722   -0.1326 F       1  UNL1       -0.2034
     38 C           2.2916    7.1269   -0.3362 C.3     1  UNL1        0.0820
     39 H           3.3526    7.4368   -0.3550 H       1  UNL1        0.0661
     40 H           1.7835    7.5909    0.5379 H       1  UNL1        0.0661
     41 H           1.7782    7.5006   -1.2497 H       1  UNL1        0.0661
     42 H           3.6173   -0.4310    0.0007 H       1  UNL1        0.0705
@<TRIPOS>BOND
     1    19    17    1
     2    41    38    1
     3    18    17    1
     4    17    11    1
     5    17    20    1
     6    39    38    1
     7    38    36    1
     8    38    40    1
     9    36    34    1
    10    35    34    2
    11    34    32    1
    12    32    33   ar
    13    32    31   ar
    14    37    31    1
    15    33    30   ar
    16    31    29   ar
    17    30    29   ar
    18    30    28   ar
    19    29    26   ar
    20    22    23   ar
    21    22     9   ar
    22    28    42    1
    23    28    27   ar
    24    26    23    1
    25    26    27   ar
    26    23    21   ar
    27     9     8   ar
    28     9    10   ar
    29    11     8    1
    30     8     4   ar
    31    21    10   ar
    32    21    24    1
    33    10     7   ar
    34     5     2    1
    35     4     2   ar
    36     4     6   ar
    37     2     1   ar
    38     7    12    1
    39     7     6   ar
    40    12    13    1
    41     1    25    1
    42     1     3   ar
    43     6     3   ar
    44    15    13    1
    45    13    14    1
    46    13    16    1
