@<TRIPOS>MOLECULE
/home/robert/research/aromodel/code/impropers-ptb7in/XYZ_Files/fin_bdt_Phi_25_Theta_110_fin_ftt.xyz
 42 46 0 0 0
SMALL
GASTEIGER

@<TRIPOS>ATOM
      1 C          -0.3206   -8.5160   -0.1558 C.ar    1  UNL1       -0.0230
      2 C           0.6975   -7.6454    0.2048 C.ar    1  UNL1       -0.0433
      3 S          -1.7769   -7.6290   -0.6680 S.2     1  UNL1       -0.0929
      4 C           0.3506   -6.2667    0.0779 C.ar    1  UNL1        0.0355
      5 H           1.6837   -7.9732    0.5571 H       1  UNL1        0.0630
      6 C          -0.9887   -6.0673   -0.4105 C.ar    1  UNL1        0.0651
      7 C          -1.5193   -4.7788   -0.5776 C.ar    1  UNL1        0.1427
      8 C           1.1962   -5.1693    0.4087 C.ar    1  UNL1        0.1427
      9 C           0.6637   -3.8785    0.2455 C.ar    1  UNL1        0.0657
     10 C          -0.6760   -3.6803   -0.2461 C.ar    1  UNL1        0.0361
     11 O           2.4442   -5.5131    0.8323 O.3     1  UNL1       -0.4933
     12 O          -2.7735   -4.4440   -1.0021 O.3     1  UNL1       -0.4933
     13 C          -3.4625   -5.3095   -1.8963 C.3     1  UNL1        0.0789
     14 H          -4.3217   -4.7312   -2.2863 H       1  UNL1        0.0660
     15 H          -3.8538   -6.2170   -1.3865 H       1  UNL1        0.0660
     16 H          -2.8155   -5.6201   -2.7449 H       1  UNL1        0.0660
     17 C           3.2263   -4.5904    1.5805 C.3     1  UNL1        0.0789
     18 H           4.0911   -5.1626    1.9667 H       1  UNL1        0.0660
     19 H           2.6568   -4.1699    2.4369 H       1  UNL1        0.0660
     20 H           3.6086   -3.7586    0.9498 H       1  UNL1        0.0660
     21 C          -1.0203   -2.3011   -0.3697 C.ar    1  UNL1       -0.0350
     22 S           1.4493   -2.3144    0.5155 S.2     1  UNL1       -0.0839
     23 C          -0.0000   -1.4352   -0.0000 C.ar    1  UNL1        0.0280
     24 H          -2.0037   -1.9672   -0.7238 H       1  UNL1        0.0636
     25 H          -0.3292   -9.6122   -0.1544 H       1  UNL1        0.0694
     26 C           0.0000    0.0000    0.0000 C.ar    1  UNL1        0.0369
     27 S           0.3821    0.8142    1.5107 S.2     1  UNL1       -0.0943
     28 C           1.0469    2.2424    0.7276 C.ar    1  UNL1       -0.0093
     29 C           0.3838    0.8231   -1.0647 C.ar    1  UNL1        0.0405
     30 C           0.9694    2.0825   -0.6783 C.ar    1  UNL1        0.0306
     31 C           0.3572    0.7623   -2.4861 C.ar    1  UNL1        0.1532
     32 C           0.8917    1.9087   -3.1069 C.ar    1  UNL1        0.1325
     33 S           1.4159    3.0407   -1.9657 S.2     1  UNL1       -0.0784
     34 C           1.0035    2.1373   -4.5600 C.2     1  UNL1        0.3485
     35 O           0.6116    1.2900   -5.3503 O.2     1  UNL1       -0.2443
     36 O           1.5487    3.2989   -5.0044 O.3     1  UNL1       -0.4640
     37 F          -0.1101   -0.2491   -3.2463 F       1  UNL1       -0.2034
     38 C           1.7095    3.6197   -6.3350 C.3     1  UNL1        0.0820
     39 H           2.1770    4.6209   -6.3703 H       1  UNL1        0.0661
     40 H           0.7374    3.6434   -6.8756 H       1  UNL1        0.0661
     41 H           2.3594    2.8864   -6.8619 H       1  UNL1        0.0661
     42 H           1.4358    3.0762    1.3215 H       1  UNL1        0.0705
@<TRIPOS>BOND
     1    40    38    1
     2    41    38    1
     3    39    38    1
     4    38    36    1
     5    35    34    2
     6    36    34    1
     7    34    32    1
     8    37    31    1
     9    32    31   ar
    10    32    33   ar
    11    16    13    1
    12    31    29   ar
    13    14    13    1
    14    33    30   ar
    15    13    15    1
    16    13    12    1
    17    29    30   ar
    18    29    26   ar
    19    12     7    1
    20    24    21    1
    21    30    28   ar
    22     3     6   ar
    23     3     1   ar
    24     7     6   ar
    25     7    10   ar
    26     6     4   ar
    27    21    10   ar
    28    21    23   ar
    29    10     9   ar
    30     1    25    1
    31     1     2   ar
    32    23    26    1
    33    23    22   ar
    34    26    27   ar
    35     4     2   ar
    36     4     8   ar
    37     2     5    1
    38     9     8   ar
    39     9    22   ar
    40     8    11    1
    41    28    42    1
    42    28    27   ar
    43    11    17    1
    44    20    17    1
    45    17    18    1
    46    17    19    1
