@<TRIPOS>MOLECULE
/home/robert/research/aromodel/code/impropers-ptb7in/XYZ_Files/fin_bdt_Phi_50_Theta_350_fin_ftt.xyz
 42 46 0 0 0
SMALL
GASTEIGER

@<TRIPOS>ATOM
      1 C           0.0254   -8.5160    0.3556 C.ar    1  UNL1       -0.0230
      2 C          -0.1714   -7.6454   -0.7064 C.ar    1  UNL1       -0.0433
      3 S           0.3100   -7.6290    1.8728 S.2     1  UNL1       -0.0929
      4 C          -0.1079   -6.2667   -0.3425 C.ar    1  UNL1        0.0355
      5 H          -0.3594   -7.9732   -1.7366 H       1  UNL1        0.0630
      6 C           0.1388   -6.0673    1.0615 C.ar    1  UNL1        0.0651
      7 C           0.2594   -4.7788    1.6046 C.ar    1  UNL1        0.1427
      8 C          -0.2442   -5.1693   -1.2402 C.ar    1  UNL1        0.1427
      9 C          -0.1193   -3.8785   -0.6975 C.ar    1  UNL1        0.0654
     10 C           0.1248   -3.6803    0.7085 C.ar    1  UNL1        0.0358
     11 O          -0.5014   -5.5131   -2.5329 O.3     1  UNL1       -0.4933
     12 O           0.5190   -4.4440    2.9030 O.3     1  UNL1       -0.4933
     13 C           0.0891   -5.3095    3.9468 C.3     1  UNL1        0.0789
     14 H           0.1809   -4.7312    4.8859 H       1  UNL1        0.0660
     15 H           0.7261   -6.2170    4.0308 H       1  UNL1        0.0660
     16 H          -0.9694   -5.6201    3.8107 H       1  UNL1        0.0660
     17 C          -0.2444   -4.5904   -3.5844 C.3     1  UNL1        0.0789
     18 H          -0.3423   -5.1626   -4.5263 H       1  UNL1        0.0660
     19 H           0.7821   -4.1699   -3.5193 H       1  UNL1        0.0660
     20 H          -0.9817   -3.7586   -3.6000 H       1  UNL1        0.0660
     21 C           0.1899   -2.3011    1.0684 C.ar    1  UNL1       -0.0384
     22 S          -0.2782   -2.3144   -1.5129 S.2     1  UNL1       -0.0876
     23 C          -0.0000   -1.4352   -0.0000 C.ar    1  UNL1        0.0137
     24 H           0.3751   -1.9672    2.0971 H       1  UNL1        0.0633
     25 H           0.0309   -9.6122    0.3623 H       1  UNL1        0.0694
     26 C           0.0000    0.0000    0.0000 C.3     1  UNL1        0.0996
     27 S           0.6904    0.5764    1.5107 S.3     1  UNL1       -0.1318
     28 C           1.8965    1.5899    0.7276 C.3     1  UNL1        0.0544
     29 C           0.6957    0.5838   -1.0647 C.ar    1  UNL1        0.0228
     30 C           1.7586    1.4777   -0.6783 C.ar    1  UNL1        0.0126
     31 C           0.6459    0.5399   -2.4861 C.ar    1  UNL1        0.1496
     32 C           1.6148    1.3530   -3.1069 C.ar    1  UNL1        0.1319
     33 S           2.5683    2.1574   -1.9657 S.2     1  UNL1       -0.0824
     34 C           1.8127    1.5130   -4.5600 C.2     1  UNL1        0.3485
     35 O           1.0995    0.9107   -5.3503 O.2     1  UNL1       -0.2443
     36 O           2.7978    2.3353   -5.0044 O.3     1  UNL1       -0.4640
     37 F          -0.2050   -0.1793   -3.2463 F       1  UNL1       -0.2037
     38 C           3.0791    2.5581   -6.3350 C.3     1  UNL1        0.0820
     39 H           3.9259    3.2679   -6.3703 H       1  UNL1        0.0661
     40 H           2.2081    2.9904   -6.8756 H       1  UNL1        0.0661
     41 H           3.3581    1.6188   -6.8619 H       1  UNL1        0.0661
     42 H           2.6013    2.1812    1.3215 H       1  UNL1        0.0481
@<TRIPOS>BOND
     1    40    38    1
     2    41    38    1
     3    39    38    1
     4    38    36    1
     5    35    34    2
     6    36    34    1
     7    34    32    1
     8    18    17    1
     9    20    17    1
    10    17    19    1
    11    17    11    1
    12    37    31    1
    13    32    31   ar
    14    32    33   ar
    15    11     8    1
    16    31    29   ar
    17    33    30   ar
    18     5     2    1
    19    22     9   ar
    20    22    23   ar
    21     8     9   ar
    22     8     4   ar
    23    29    30   ar
    24    29    26    1
    25     2     4   ar
    26     2     1   ar
    27     9    10   ar
    28    30    28    1
    29     4     6   ar
    30    23    26    1
    31    23    21   ar
    32    26    27    1
    33     1    25    1
    34     1     3   ar
    35    10    21   ar
    36    10     7   ar
    37    28    42    1
    38    28    27    1
    39     6     7   ar
    40     6     3   ar
    41    21    24    1
    42     7    12    1
    43    12    13    1
    44    16    13    1
    45    13    15    1
    46    13    14    1
