@<TRIPOS>MOLECULE
/home/robert/research/aromodel/code/impropers-ptb7in/XYZ_Files/fin_bdt_Phi_15_Theta_320_fin_ftt.xyz
 42 46 0 0 0
SMALL
GASTEIGER

@<TRIPOS>ATOM
      1 C           0.1998   -8.5160    0.2953 C.ar    1  UNL1       -0.0230
      2 C          -0.5016   -7.6454   -0.5261 C.ar    1  UNL1       -0.0433
      3 S           1.2048   -7.6290    1.4669 S.2     1  UNL1       -0.0929
      4 C          -0.2647   -6.2667   -0.2427 C.ar    1  UNL1        0.0355
      5 H          -1.1796   -7.9732   -1.3243 H       1  UNL1        0.0630
      6 C           0.6510   -6.0673    0.8499 C.ar    1  UNL1        0.0651
      7 C           1.0270   -4.7788    1.2599 C.ar    1  UNL1        0.1427
      8 C          -0.8316   -5.1693   -0.9520 C.ar    1  UNL1        0.1427
      9 C          -0.4521   -3.8785   -0.5445 C.ar    1  UNL1        0.0657
     10 C           0.4623   -3.6803    0.5511 C.ar    1  UNL1        0.0361
     11 O          -1.7006   -5.5131   -1.9429 O.3     1  UNL1       -0.4933
     12 O           1.9009   -4.4440    2.2546 O.3     1  UNL1       -0.4933
     13 C           2.0505   -5.3095    3.3735 C.3     1  UNL1        0.0789
     14 H           2.5996   -4.7312    4.1409 H       1  UNL1        0.0660
     15 H           2.6442   -6.2170    3.1277 H       1  UNL1        0.0660
     16 H           1.0658   -5.6201    3.7849 H       1  UNL1        0.0660
     17 C          -2.0038   -4.5904   -2.9819 C.3     1  UNL1        0.0789
     18 H          -2.5596   -5.1626   -3.7487 H       1  UNL1        0.0660
     19 H          -1.0824   -4.1699   -3.4388 H       1  UNL1        0.0660
     20 H          -2.6502   -3.7586   -2.6269 H       1  UNL1        0.0660
     21 C           0.6987   -2.3011    0.8303 C.ar    1  UNL1       -0.0350
     22 S          -0.9974   -2.3144   -1.1711 S.2     1  UNL1       -0.0839
     23 C           0.0000   -1.4352    0.0000 C.ar    1  UNL1        0.0280
     24 H           1.3734   -1.9672    1.6287 H       1  UNL1        0.0636
     25 H           0.2079   -9.6122    0.2983 H       1  UNL1        0.0694
     26 C           0.0000    0.0000    0.0000 C.ar    1  UNL1        0.0369
     27 S           0.2349    0.8682    1.5107 S.2     1  UNL1       -0.0943
     28 C           0.6416    2.3901    0.7276 C.ar    1  UNL1       -0.0093
     29 C           0.2350    0.8773   -1.0647 C.ar    1  UNL1        0.0405
     30 C           0.5930    2.2191   -0.6783 C.ar    1  UNL1        0.0306
     31 C           0.2195    0.8127   -2.4861 C.ar    1  UNL1        0.1532
     32 C           0.5467    2.0345   -3.1069 C.ar    1  UNL1        0.1325
     33 S           0.8663    3.2404   -1.9657 S.2     1  UNL1       -0.0784
     34 C           0.6171    2.2791   -4.5600 C.2     1  UNL1        0.3485
     35 O           0.3783    1.3766   -5.3503 O.2     1  UNL1       -0.2443
     36 O           0.9523    3.5177   -5.0044 O.3     1  UNL1       -0.4640
     37 F          -0.0651   -0.2644   -3.2463 F       1  UNL1       -0.2034
     38 C           1.0550    3.8616   -6.3350 C.3     1  UNL1        0.0820
     39 H           1.3415    4.9287   -6.3703 H       1  UNL1        0.0661
     40 H           0.0936    3.7161   -6.8756 H       1  UNL1        0.0661
     41 H           1.8223    3.2522   -6.8619 H       1  UNL1        0.0661
     42 H           0.8798    3.2788    1.3215 H       1  UNL1        0.0705
@<TRIPOS>BOND
     1    40    38    1
     2    41    38    1
     3    39    38    1
     4    38    36    1
     5    35    34    2
     6    36    34    1
     7    34    32    1
     8    18    17    1
     9    19    17    1
    10    37    31    1
    11    32    31   ar
    12    32    33   ar
    13    17    20    1
    14    17    11    1
    15    31    29   ar
    16    33    30   ar
    17    11     8    1
    18     5     2    1
    19    22     9   ar
    20    22    23   ar
    21    29    30   ar
    22    29    26   ar
    23     8     9   ar
    24     8     4   ar
    25    30    28   ar
    26     9    10   ar
    27     2     4   ar
    28     2     1   ar
    29     4     6   ar
    30    26    23    1
    31    26    27   ar
    32    23    21   ar
    33     1    25    1
    34     1     3   ar
    35    10    21   ar
    36    10     7   ar
    37    28    42    1
    38    28    27   ar
    39    21    24    1
    40     6     7   ar
    41     6     3   ar
    42     7    12    1
    43    12    13    1
    44    15    13    1
    45    13    16    1
    46    13    14    1
