@<TRIPOS>MOLECULE
/home/robert/research/aromodel/code/impropers-ptb7in/XYZ_Files/fin_bdt_Phi_50_Theta_290_fin_ftt.xyz
 42 46 0 0 0
SMALL
GASTEIGER

@<TRIPOS>ATOM
      1 C           0.3206   -8.5160    0.1558 C.ar    1  UNL1       -0.0230
      2 C          -0.6975   -7.6454   -0.2048 C.ar    1  UNL1       -0.0433
      3 S           1.7769   -7.6290    0.6680 S.2     1  UNL1       -0.0929
      4 C          -0.3506   -6.2667   -0.0779 C.ar    1  UNL1        0.0355
      5 H          -1.6837   -7.9732   -0.5571 H       1  UNL1        0.0630
      6 C           0.9887   -6.0673    0.4105 C.ar    1  UNL1        0.0651
      7 C           1.5193   -4.7788    0.5776 C.ar    1  UNL1        0.1427
      8 C          -1.1962   -5.1693   -0.4087 C.ar    1  UNL1        0.1427
      9 C          -0.6637   -3.8785   -0.2455 C.ar    1  UNL1        0.0654
     10 C           0.6760   -3.6803    0.2461 C.ar    1  UNL1        0.0358
     11 O          -2.4442   -5.5131   -0.8323 O.3     1  UNL1       -0.4933
     12 O           2.7735   -4.4440    1.0021 O.3     1  UNL1       -0.4933
     13 C           3.4625   -5.3095    1.8963 C.3     1  UNL1        0.0789
     14 H           4.3217   -4.7312    2.2863 H       1  UNL1        0.0660
     15 H           3.8538   -6.2170    1.3865 H       1  UNL1        0.0660
     16 H           2.8155   -5.6201    2.7449 H       1  UNL1        0.0660
     17 C          -3.2263   -4.5904   -1.5805 C.3     1  UNL1        0.0789
     18 H          -4.0911   -5.1626   -1.9667 H       1  UNL1        0.0660
     19 H          -2.6568   -4.1699   -2.4369 H       1  UNL1        0.0660
     20 H          -3.6086   -3.7586   -0.9498 H       1  UNL1        0.0660
     21 C           1.0203   -2.3011    0.3697 C.ar    1  UNL1       -0.0384
     22 S          -1.4493   -2.3144   -0.5155 S.2     1  UNL1       -0.0876
     23 C          -0.0000   -1.4352   -0.0000 C.ar    1  UNL1        0.0137
     24 H           2.0037   -1.9672    0.7238 H       1  UNL1        0.0633
     25 H           0.3292   -9.6122    0.1544 H       1  UNL1        0.0694
     26 C           0.0000    0.0000    0.0000 C.3     1  UNL1        0.0996
     27 S           0.6904    0.5764    1.5107 S.3     1  UNL1       -0.1318
     28 C           1.8965    1.5899    0.7276 C.3     1  UNL1        0.0544
     29 C           0.6957    0.5838   -1.0647 C.ar    1  UNL1        0.0228
     30 C           1.7586    1.4777   -0.6783 C.ar    1  UNL1        0.0126
     31 C           0.6459    0.5399   -2.4861 C.ar    1  UNL1        0.1496
     32 C           1.6148    1.3530   -3.1069 C.ar    1  UNL1        0.1319
     33 S           2.5683    2.1574   -1.9657 S.2     1  UNL1       -0.0824
     34 C           1.8127    1.5130   -4.5600 C.2     1  UNL1        0.3485
     35 O           1.0995    0.9107   -5.3503 O.2     1  UNL1       -0.2443
     36 O           2.7978    2.3353   -5.0044 O.3     1  UNL1       -0.4640
     37 F          -0.2050   -0.1793   -3.2463 F       1  UNL1       -0.2037
     38 C           3.0791    2.5581   -6.3350 C.3     1  UNL1        0.0820
     39 H           3.9259    3.2679   -6.3703 H       1  UNL1        0.0661
     40 H           2.2081    2.9904   -6.8756 H       1  UNL1        0.0661
     41 H           3.3581    1.6188   -6.8619 H       1  UNL1        0.0661
     42 H           2.6013    2.1812    1.3215 H       1  UNL1        0.0481
@<TRIPOS>BOND
     1    40    38    1
     2    41    38    1
     3    39    38    1
     4    38    36    1
     5    35    34    2
     6    36    34    1
     7    34    32    1
     8    37    31    1
     9    32    31   ar
    10    32    33   ar
    11    31    29   ar
    12    19    17    1
    13    18    17    1
    14    33    30   ar
    15    17    20    1
    16    17    11    1
    17    29    30   ar
    18    29    26    1
    19    11     8    1
    20    30    28    1
    21     5     2    1
    22    22     9   ar
    23    22    23   ar
    24     8     9   ar
    25     8     4   ar
    26     9    10   ar
    27     2     4   ar
    28     2     1   ar
    29     4     6   ar
    30    26    23    1
    31    26    27    1
    32    23    21   ar
    33    25     1    1
    34     1     3   ar
    35    10    21   ar
    36    10     7   ar
    37    21    24    1
    38     6     7   ar
    39     6     3   ar
    40     7    12    1
    41    28    42    1
    42    28    27    1
    43    12    13    1
    44    15    13    1
    45    13    14    1
    46    13    16    1
