@<TRIPOS>MOLECULE
/home/robert/research/aromodel/code/impropers-ptb7in/XYZ_Files/fin_bdt_Phi_60_Theta_270_fin_ftt.xyz
 42 46 0 0 0
SMALL
GASTEIGER

@<TRIPOS>ATOM
      1 C           0.3546   -8.5160    0.0368 C.ar    1  UNL1       -0.0230
      2 C          -0.7255   -7.6454    0.0461 C.ar    1  UNL1       -0.0433
      3 S           1.8982   -7.6290    0.0200 S.2     1  UNL1       -0.0929
      4 C          -0.3561   -6.2667    0.0467 C.ar    1  UNL1        0.0355
      5 H          -1.7727   -7.9732    0.0524 H       1  UNL1        0.0630
      6 C           1.0695   -6.0673    0.0476 C.ar    1  UNL1        0.0651
      7 C           1.6253   -4.7788    0.0232 C.ar    1  UNL1        0.1427
      8 C          -1.2638   -5.1693    0.0251 C.ar    1  UNL1        0.1427
      9 C          -0.7077   -3.8785   -0.0037 C.ar    1  UNL1        0.0654
     10 C           0.7194   -3.6803    0.0001 C.ar    1  UNL1        0.0358
     11 O          -2.5815   -5.5131    0.0539 O.3     1  UNL1       -0.4933
     12 O           2.9490   -4.4440   -0.0070 O.3     1  UNL1       -0.4933
     13 C           3.9023   -5.3095    0.5976 C.3     1  UNL1        0.0789
     14 H           4.8431   -4.7312    0.6703 H       1  UNL1        0.0660
     15 H           4.0956   -6.2170   -0.0152 H       1  UNL1        0.0660
     16 H           3.5845   -5.6201    1.6164 H       1  UNL1        0.0660
     17 C          -3.5723   -4.5904   -0.3817 C.3     1  UNL1        0.0789
     18 H          -4.5170   -5.1626   -0.4489 H       1  UNL1        0.0660
     19 H          -3.3300   -4.1699   -1.3813 H       1  UNL1        0.0660
     20 H          -3.7158   -3.7586    0.3417 H       1  UNL1        0.0660
     21 C           1.0852   -2.3011   -0.0015 C.ar    1  UNL1       -0.0384
     22 S          -1.5382   -2.3144    0.0113 S.2     1  UNL1       -0.0876
     23 C           0.0000   -1.4352    0.0000 C.ar    1  UNL1        0.0137
     24 H           2.1304   -1.9672   -0.0052 H       1  UNL1        0.0633
     25 H           0.3622   -9.6122    0.0325 H       1  UNL1        0.0694
     26 C           0.0000    0.0000    0.0000 C.3     1  UNL1        0.0996
     27 S           0.7800    0.4478    1.5107 S.3     1  UNL1       -0.1318
     28 C           2.1438    1.2364    0.7276 C.3     1  UNL1        0.0544
     29 C           0.7865    0.4541   -1.0647 C.ar    1  UNL1        0.0228
     30 C           1.9885    1.1498   -0.6783 C.ar    1  UNL1        0.0126
     31 C           0.7299    0.4195   -2.4861 C.ar    1  UNL1        0.1496
     32 C           1.8252    1.0520   -3.1069 C.ar    1  UNL1        0.1319
     33 S           2.9039    1.6787   -1.9657 S.2     1  UNL1       -0.0824
     34 C           2.0479    1.1752   -4.5600 C.2     1  UNL1        0.3485
     35 O           1.2410    0.7059   -5.3503 O.2     1  UNL1       -0.2443
     36 O           3.1608    1.8140   -5.0044 O.3     1  UNL1       -0.4640
     37 F          -0.2330   -0.1409   -3.2463 F       1  UNL1       -0.2037
     38 C           3.4765    1.9846   -6.3350 C.3     1  UNL1        0.0820
     39 H           4.4337    2.5365   -6.3703 H       1  UNL1        0.0661
     40 H           2.6938    2.5615   -6.8756 H       1  UNL1        0.0661
     41 H           3.5882    1.0111   -6.8619 H       1  UNL1        0.0661
     42 H           2.9406    1.6963    1.3215 H       1  UNL1        0.0481
@<TRIPOS>BOND
     1    40    38    1
     2    41    38    1
     3    39    38    1
     4    38    36    1
     5    35    34    2
     6    36    34    1
     7    34    32    1
     8    37    31    1
     9    32    31   ar
    10    32    33   ar
    11    31    29   ar
    12    33    30   ar
    13    19    17    1
    14    29    30   ar
    15    29    26    1
    16    30    28    1
    17    18    17    1
    18    17    11    1
    19    17    20    1
    20    15    13    1
    21    12     7    1
    22    12    13    1
    23    24    21    1
    24     9    10   ar
    25     9    22   ar
    26     9     8   ar
    27    21    23   ar
    28    21    10   ar
    29    23    26    1
    30    23    22   ar
    31    26    27    1
    32    10     7   ar
    33     3     1   ar
    34     3     6   ar
    35     7     6   ar
    36     8     4   ar
    37     8    11    1
    38    25     1    1
    39     1     2   ar
    40     2     4   ar
    41     2     5    1
    42     4     6   ar
    43    13    14    1
    44    13    16    1
    45    28    42    1
    46    28    27    1
