@<TRIPOS>MOLECULE
/home/robert/research/aromodel/code/impropers-ptb7in/XYZ_Files/fin_bdt_Phi_5_Theta_80_fin_ftt.xyz
 42 46 0 0 0
SMALL
GASTEIGER

@<TRIPOS>ATOM
      1 C          -0.3556   -8.5160    0.0254 C.ar    1  UNL1       -0.0230
      2 C           0.7064   -7.6454   -0.1714 C.ar    1  UNL1       -0.0433
      3 S          -1.8728   -7.6290    0.3100 S.2     1  UNL1       -0.0929
      4 C           0.3425   -6.2667   -0.1079 C.ar    1  UNL1        0.0355
      5 H           1.7366   -7.9732   -0.3594 H       1  UNL1        0.0630
      6 C          -1.0615   -6.0673    0.1388 C.ar    1  UNL1        0.0651
      7 C          -1.6046   -4.7788    0.2594 C.ar    1  UNL1        0.1427
      8 C           1.2402   -5.1693   -0.2442 C.ar    1  UNL1        0.1427
      9 C           0.6975   -3.8785   -0.1193 C.ar    1  UNL1        0.0657
     10 C          -0.7085   -3.6803    0.1248 C.ar    1  UNL1        0.0361
     11 O           2.5329   -5.5131   -0.5014 O.3     1  UNL1       -0.4933
     12 O          -2.9030   -4.4440    0.5190 O.3     1  UNL1       -0.4933
     13 C          -3.9468   -5.3095    0.0891 C.3     1  UNL1        0.0789
     14 H          -4.8859   -4.7312    0.1809 H       1  UNL1        0.0660
     15 H          -4.0308   -6.2170    0.7261 H       1  UNL1        0.0660
     16 H          -3.8107   -5.6201   -0.9694 H       1  UNL1        0.0660
     17 C           3.5844   -4.5904   -0.2444 C.3     1  UNL1        0.0789
     18 H           4.5263   -5.1626   -0.3423 H       1  UNL1        0.0660
     19 H           3.5193   -4.1699    0.7821 H       1  UNL1        0.0660
     20 H           3.6000   -3.7586   -0.9817 H       1  UNL1        0.0660
     21 C          -1.0684   -2.3011    0.1899 C.ar    1  UNL1       -0.0350
     22 S           1.5129   -2.3144   -0.2782 S.2     1  UNL1       -0.0839
     23 C          -0.0000   -1.4352   -0.0000 C.ar    1  UNL1        0.0280
     24 H          -2.0971   -1.9672    0.3751 H       1  UNL1        0.0636
     25 H          -0.3623   -9.6122    0.0309 H       1  UNL1        0.0694
     26 C           0.0000    0.0000    0.0000 C.ar    1  UNL1        0.0369
     27 S           0.0806    0.8958    1.5107 S.2     1  UNL1       -0.0943
     28 C           0.2168    2.4652    0.7276 C.ar    1  UNL1       -0.0093
     29 C           0.0791    0.9048   -1.0647 C.ar    1  UNL1        0.0405
     30 C           0.1987    2.2884   -0.6783 C.ar    1  UNL1        0.0306
     31 C           0.0750    0.8385   -2.4861 C.ar    1  UNL1        0.1532
     32 C           0.1851    2.0985   -3.1069 C.ar    1  UNL1        0.1325
     33 S           0.2905    3.3416   -1.9657 S.2     1  UNL1       -0.0784
     34 C           0.2119    2.3516   -4.5600 C.2     1  UNL1        0.3485
     35 O           0.1335    1.4214   -5.3503 O.2     1  UNL1       -0.2443
     36 O           0.3270    3.6296   -5.0044 O.3     1  UNL1       -0.4640
     37 F          -0.0182   -0.2717   -3.2463 F       1  UNL1       -0.2034
     38 C           0.3684    3.9861   -6.3350 C.3     1  UNL1        0.0820
     39 H           0.4653    5.0868   -6.3703 H       1  UNL1        0.0661
     40 H          -0.5531    3.6759   -6.8756 H       1  UNL1        0.0661
     41 H           1.2299    3.5193   -6.8619 H       1  UNL1        0.0661
     42 H           0.2971    3.3817    1.3215 H       1  UNL1        0.0705
@<TRIPOS>BOND
     1    40    38    1
     2    41    38    1
     3    39    38    1
     4    38    36    1
     5    35    34    2
     6    36    34    1
     7    34    32    1
     8    37    31    1
     9    32    31   ar
    10    32    33   ar
    11    31    29   ar
    12    33    30   ar
    13    29    30   ar
    14    29    26   ar
    15    20    17    1
    16    16    13    1
    17    30    28   ar
    18    11    17    1
    19    11     8    1
    20     5     2    1
    21    18    17    1
    22    22     9   ar
    23    22    23   ar
    24    17    19    1
    25     8     9   ar
    26     8     4   ar
    27     2     4   ar
    28     2     1   ar
    29     9    10   ar
    30     4     6   ar
    31    23    26    1
    32    23    21   ar
    33    26    27   ar
    34     1    25    1
    35     1     3   ar
    36    13    14    1
    37    13    12    1
    38    13    15    1
    39    10    21   ar
    40    10     7   ar
    41     6     7   ar
    42     6     3   ar
    43    21    24    1
    44     7    12    1
    45    28    42    1
    46    28    27   ar
