@<TRIPOS>MOLECULE
/home/robert/research/aromodel/code/impropers-ptb7in/XYZ_Files/fin_bdt_Phi_40_Theta_60_fin_ftt.xyz
 42 46 0 0 0
SMALL
GASTEIGER

@<TRIPOS>ATOM
      1 C          -0.3255   -8.5160    0.1455 C.ar    1  UNL1       -0.0230
      2 C           0.6052   -7.6454   -0.4026 C.ar    1  UNL1       -0.0433
      3 S          -1.6539   -7.6290    0.9318 S.2     1  UNL1       -0.0929
      4 C           0.2850   -6.2667   -0.2185 C.ar    1  UNL1        0.0355
      5 H           1.5090   -7.9732   -0.9317 H       1  UNL1        0.0630
      6 C          -0.9500   -6.0673    0.4935 C.ar    1  UNL1        0.0651
      7 C          -1.4191   -4.7788    0.7926 C.ar    1  UNL1        0.1427
      8 C           1.0819   -5.1693   -0.6536 C.ar    1  UNL1        0.1427
      9 C           0.6147   -3.8785   -0.3507 C.ar    1  UNL1        0.0654
     10 C          -0.6231   -3.6803    0.3596 C.ar    1  UNL1        0.0358
     11 O           2.2087   -5.5131   -1.3374 O.3     1  UNL1       -0.4933
     12 O          -2.5504   -4.4440    1.4805 O.3     1  UNL1       -0.4933
     13 C          -3.6783   -5.3095    1.4336 C.3     1  UNL1        0.0789
     14 H          -4.5294   -4.7312    1.8410 H       1  UNL1        0.0660
     15 H          -3.5393   -6.2170    2.0609 H       1  UNL1        0.0660
     16 H          -3.9125   -5.6201    0.3924 H       1  UNL1        0.0660
     17 C           3.2846   -4.5904   -1.4556 C.3     1  UNL1        0.0789
     18 H           4.1363   -5.1626   -1.8698 H       1  UNL1        0.0660
     19 H           3.5746   -4.1699   -0.4688 H       1  UNL1        0.0660
     20 H           3.0472   -3.7586   -2.1538 H       1  UNL1        0.0660
     21 C          -0.9390   -2.3011    0.5439 C.ar    1  UNL1       -0.0384
     22 S           1.3265   -2.3144   -0.7789 S.2     1  UNL1       -0.0876
     23 C          -0.0000   -1.4352   -0.0000 C.ar    1  UNL1        0.0137
     24 H          -1.8424   -1.9672    1.0697 H       1  UNL1        0.0633
     25 H          -0.3299   -9.6122    0.1530 H       1  UNL1        0.0694
     26 C           0.0000    0.0000    0.0000 C.3     1  UNL1        0.0996
     27 S           0.5799    0.6876    1.5107 S.3     1  UNL1       -0.1318
     28 C           1.5916    1.8950    0.7276 C.3     1  UNL1        0.0544
     29 C           0.5838    0.6958   -1.0647 C.ar    1  UNL1        0.0228
     30 C           1.4753    1.7606   -0.6783 C.ar    1  UNL1        0.0126
     31 C           0.5424    0.6438   -2.4861 C.ar    1  UNL1        0.1496
     32 C           1.3553    1.6128   -3.1069 C.ar    1  UNL1        0.1319
     33 S           2.1546    2.5706   -1.9657 S.2     1  UNL1       -0.0824
     34 C           1.5224    1.8048   -4.5600 C.2     1  UNL1        0.3485
     35 O           0.9247    1.0878   -5.3503 O.2     1  UNL1       -0.2443
     36 O           2.3497    2.7857   -5.0044 O.3     1  UNL1       -0.4640
     37 F          -0.1708   -0.2121   -3.2463 F       1  UNL1       -0.2037
     38 C           2.5881    3.0539   -6.3350 C.3     1  UNL1        0.0820
     39 H           3.2988    3.9000   -6.3703 H       1  UNL1        0.0661
     40 H           1.6553    3.3284   -6.8756 H       1  UNL1        0.0661
     41 H           3.0260    2.1774   -6.8619 H       1  UNL1        0.0661
     42 H           2.1831    2.5998    1.3215 H       1  UNL1        0.0481
@<TRIPOS>BOND
     1    40    38    1
     2    41    38    1
     3    39    38    1
     4    38    36    1
     5    35    34    2
     6    36    34    1
     7    34    32    1
     8    37    31    1
     9    32    31   ar
    10    32    33   ar
    11    31    29   ar
    12    20    17    1
    13    33    30   ar
    14    18    17    1
    15    17    11    1
    16    17    19    1
    17    11     8    1
    18    29    30   ar
    19    29    26    1
    20     5     2    1
    21    22     9   ar
    22    22    23   ar
    23    30    28    1
    24     8     9   ar
    25     8     4   ar
    26     2     4   ar
    27     2     1   ar
    28     9    10   ar
    29     4     6   ar
    30    26    23    1
    31    26    27    1
    32    23    21   ar
    33     1    25    1
    34     1     3   ar
    35    10    21   ar
    36    10     7   ar
    37    16    13    1
    38     6     7   ar
    39     6     3   ar
    40    21    24    1
    41    28    42    1
    42    28    27    1
    43     7    12    1
    44    13    12    1
    45    13    14    1
    46    13    15    1
