@<TRIPOS>MOLECULE
/home/robert/research/aromodel/code/impropers-ptb7in/XYZ_Files/fin_bdt_Phi_40_Theta_20_fin_ftt.xyz
 42 46 0 0 0
SMALL
GASTEIGER

@<TRIPOS>ATOM
      1 C          -0.1558   -8.5160    0.3206 C.ar    1  UNL1       -0.0230
      2 C           0.2048   -7.6454   -0.6975 C.ar    1  UNL1       -0.0433
      3 S          -0.6680   -7.6290    1.7769 S.2     1  UNL1       -0.0929
      4 C           0.0779   -6.2667   -0.3506 C.ar    1  UNL1        0.0355
      5 H           0.5571   -7.9732   -1.6837 H       1  UNL1        0.0630
      6 C          -0.4105   -6.0673    0.9887 C.ar    1  UNL1        0.0651
      7 C          -0.5776   -4.7788    1.5193 C.ar    1  UNL1        0.1427
      8 C           0.4087   -5.1693   -1.1962 C.ar    1  UNL1        0.1427
      9 C           0.2455   -3.8785   -0.6637 C.ar    1  UNL1        0.0654
     10 C          -0.2461   -3.6803    0.6760 C.ar    1  UNL1        0.0358
     11 O           0.8323   -5.5131   -2.4442 O.3     1  UNL1       -0.4933
     12 O          -1.0021   -4.4440    2.7735 O.3     1  UNL1       -0.4933
     13 C          -1.8963   -5.3095    3.4625 C.3     1  UNL1        0.0789
     14 H          -2.2863   -4.7312    4.3217 H       1  UNL1        0.0660
     15 H          -1.3865   -6.2170    3.8538 H       1  UNL1        0.0660
     16 H          -2.7449   -5.6201    2.8155 H       1  UNL1        0.0660
     17 C           1.5805   -4.5904   -3.2263 C.3     1  UNL1        0.0789
     18 H           1.9667   -5.1626   -4.0911 H       1  UNL1        0.0660
     19 H           2.4369   -4.1699   -2.6568 H       1  UNL1        0.0660
     20 H           0.9498   -3.7586   -3.6086 H       1  UNL1        0.0660
     21 C          -0.3697   -2.3011    1.0203 C.ar    1  UNL1       -0.0384
     22 S           0.5155   -2.3144   -1.4493 S.2     1  UNL1       -0.0876
     23 C          -0.0000   -1.4352   -0.0000 C.ar    1  UNL1        0.0137
     24 H          -0.7238   -1.9672    2.0037 H       1  UNL1        0.0633
     25 H          -0.1544   -9.6122    0.3292 H       1  UNL1        0.0694
     26 C           0.0000    0.0000    0.0000 C.3     1  UNL1        0.0996
     27 S           0.5799    0.6876    1.5107 S.3     1  UNL1       -0.1318
     28 C           1.5916    1.8950    0.7276 C.3     1  UNL1        0.0544
     29 C           0.5838    0.6958   -1.0647 C.ar    1  UNL1        0.0228
     30 C           1.4753    1.7606   -0.6783 C.ar    1  UNL1        0.0126
     31 C           0.5424    0.6438   -2.4861 C.ar    1  UNL1        0.1496
     32 C           1.3553    1.6128   -3.1069 C.ar    1  UNL1        0.1319
     33 S           2.1546    2.5706   -1.9657 S.2     1  UNL1       -0.0824
     34 C           1.5224    1.8048   -4.5600 C.2     1  UNL1        0.3485
     35 O           0.9247    1.0878   -5.3503 O.2     1  UNL1       -0.2443
     36 O           2.3497    2.7857   -5.0044 O.3     1  UNL1       -0.4640
     37 F          -0.1708   -0.2121   -3.2463 F       1  UNL1       -0.2037
     38 C           2.5881    3.0539   -6.3350 C.3     1  UNL1        0.0820
     39 H           3.2988    3.9000   -6.3703 H       1  UNL1        0.0661
     40 H           1.6553    3.3284   -6.8756 H       1  UNL1        0.0661
     41 H           3.0260    2.1774   -6.8619 H       1  UNL1        0.0661
     42 H           2.1831    2.5998    1.3215 H       1  UNL1        0.0481
@<TRIPOS>BOND
     1    40    38    1
     2    41    38    1
     3    39    38    1
     4    38    36    1
     5    35    34    2
     6    36    34    1
     7    34    32    1
     8    18    17    1
     9    20    17    1
    10    37    31    1
    11    17    19    1
    12    17    11    1
    13    32    31   ar
    14    32    33   ar
    15    31    29   ar
    16    11     8    1
    17    33    30   ar
    18     5     2    1
    19    22     9   ar
    20    22    23   ar
    21     8     9   ar
    22     8     4   ar
    23    29    30   ar
    24    29    26    1
    25     2     4   ar
    26     2     1   ar
    27    30    28    1
    28     9    10   ar
    29     4     6   ar
    30    23    26    1
    31    23    21   ar
    32    26    27    1
    33     1    25    1
    34     1     3   ar
    35    10    21   ar
    36    10     7   ar
    37    28    42    1
    38    28    27    1
    39     6     7   ar
    40     6     3   ar
    41    21    24    1
    42     7    12    1
    43    12    13    1
    44    16    13    1
    45    13    15    1
    46    13    14    1
