@<TRIPOS>MOLECULE
/home/robert/research/aromodel/code/impropers-ptb7in/XYZ_Files/fin_bdt_Phi_15_Theta_140_fin_ftt.xyz
 42 46 0 0 0
SMALL
GASTEIGER

@<TRIPOS>ATOM
      1 C          -0.1998   -8.5160   -0.2953 C.ar    1  UNL1       -0.0230
      2 C           0.5016   -7.6454    0.5261 C.ar    1  UNL1       -0.0433
      3 S          -1.2048   -7.6290   -1.4669 S.2     1  UNL1       -0.0929
      4 C           0.2647   -6.2667    0.2427 C.ar    1  UNL1        0.0355
      5 H           1.1796   -7.9732    1.3243 H       1  UNL1        0.0630
      6 C          -0.6510   -6.0673   -0.8499 C.ar    1  UNL1        0.0651
      7 C          -1.0270   -4.7788   -1.2599 C.ar    1  UNL1        0.1427
      8 C           0.8316   -5.1693    0.9520 C.ar    1  UNL1        0.1427
      9 C           0.4521   -3.8785    0.5445 C.ar    1  UNL1        0.0657
     10 C          -0.4623   -3.6803   -0.5511 C.ar    1  UNL1        0.0361
     11 O           1.7006   -5.5131    1.9429 O.3     1  UNL1       -0.4933
     12 O          -1.9009   -4.4440   -2.2546 O.3     1  UNL1       -0.4933
     13 C          -2.0505   -5.3095   -3.3735 C.3     1  UNL1        0.0789
     14 H          -2.5996   -4.7312   -4.1409 H       1  UNL1        0.0660
     15 H          -2.6442   -6.2170   -3.1277 H       1  UNL1        0.0660
     16 H          -1.0658   -5.6201   -3.7849 H       1  UNL1        0.0660
     17 C           2.0038   -4.5904    2.9819 C.3     1  UNL1        0.0789
     18 H           2.5596   -5.1626    3.7487 H       1  UNL1        0.0660
     19 H           1.0824   -4.1699    3.4388 H       1  UNL1        0.0660
     20 H           2.6502   -3.7586    2.6269 H       1  UNL1        0.0660
     21 C          -0.6987   -2.3011   -0.8303 C.ar    1  UNL1       -0.0350
     22 S           0.9974   -2.3144    1.1711 S.2     1  UNL1       -0.0839
     23 C           0.0000   -1.4352    0.0000 C.ar    1  UNL1        0.0280
     24 H          -1.3734   -1.9672   -1.6287 H       1  UNL1        0.0636
     25 H          -0.2079   -9.6122   -0.2983 H       1  UNL1        0.0694
     26 C           0.0000    0.0000    0.0000 C.ar    1  UNL1        0.0369
     27 S           0.2349    0.8682    1.5107 S.2     1  UNL1       -0.0943
     28 C           0.6416    2.3901    0.7276 C.ar    1  UNL1       -0.0093
     29 C           0.2350    0.8773   -1.0647 C.ar    1  UNL1        0.0405
     30 C           0.5930    2.2191   -0.6783 C.ar    1  UNL1        0.0306
     31 C           0.2195    0.8127   -2.4861 C.ar    1  UNL1        0.1532
     32 C           0.5467    2.0345   -3.1069 C.ar    1  UNL1        0.1325
     33 S           0.8663    3.2404   -1.9657 S.2     1  UNL1       -0.0784
     34 C           0.6171    2.2791   -4.5600 C.2     1  UNL1        0.3485
     35 O           0.3783    1.3766   -5.3503 O.2     1  UNL1       -0.2443
     36 O           0.9523    3.5177   -5.0044 O.3     1  UNL1       -0.4640
     37 F          -0.0651   -0.2644   -3.2463 F       1  UNL1       -0.2034
     38 C           1.0550    3.8616   -6.3350 C.3     1  UNL1        0.0820
     39 H           1.3415    4.9287   -6.3703 H       1  UNL1        0.0661
     40 H           0.0936    3.7161   -6.8756 H       1  UNL1        0.0661
     41 H           1.8223    3.2522   -6.8619 H       1  UNL1        0.0661
     42 H           0.8798    3.2788    1.3215 H       1  UNL1        0.0705
@<TRIPOS>BOND
     1    40    38    1
     2    41    38    1
     3    39    38    1
     4    38    36    1
     5    35    34    2
     6    36    34    1
     7    34    32    1
     8    14    13    1
     9    16    13    1
    10    13    15    1
    11    13    12    1
    12    37    31    1
    13    32    31   ar
    14    32    33   ar
    15    31    29   ar
    16    12     7    1
    17    33    30   ar
    18    24    21    1
    19     3     6   ar
    20     3     1   ar
    21     7     6   ar
    22     7    10   ar
    23    29    30   ar
    24    29    26   ar
    25     6     4   ar
    26    21    10   ar
    27    21    23   ar
    28    30    28   ar
    29    10     9   ar
    30    25     1    1
    31     1     2   ar
    32    23    26    1
    33    23    22   ar
    34    26    27   ar
    35     4     2   ar
    36     4     8   ar
    37     2     5    1
    38     9     8   ar
    39     9    22   ar
    40    28    42    1
    41    28    27   ar
    42     8    11    1
    43    11    17    1
    44    20    17    1
    45    17    19    1
    46    17    18    1
