@<TRIPOS>MOLECULE
/home/robert/research/aromodel/code/impropers-ptb7in/XYZ_Files/fin_bdt_Phi_40_Theta_90_fin_ftt.xyz
 42 46 0 0 0
SMALL
GASTEIGER

@<TRIPOS>ATOM
      1 C          -0.3546   -8.5160   -0.0368 C.ar    1  UNL1       -0.0230
      2 C           0.7255   -7.6454   -0.0461 C.ar    1  UNL1       -0.0433
      3 S          -1.8982   -7.6290   -0.0200 S.2     1  UNL1       -0.0929
      4 C           0.3561   -6.2667   -0.0467 C.ar    1  UNL1        0.0355
      5 H           1.7727   -7.9732   -0.0524 H       1  UNL1        0.0630
      6 C          -1.0695   -6.0673   -0.0476 C.ar    1  UNL1        0.0651
      7 C          -1.6253   -4.7788   -0.0232 C.ar    1  UNL1        0.1427
      8 C           1.2638   -5.1693   -0.0251 C.ar    1  UNL1        0.1427
      9 C           0.7077   -3.8785    0.0037 C.ar    1  UNL1        0.0654
     10 C          -0.7194   -3.6803   -0.0001 C.ar    1  UNL1        0.0358
     11 O           2.5815   -5.5131   -0.0539 O.3     1  UNL1       -0.4933
     12 O          -2.9490   -4.4440    0.0070 O.3     1  UNL1       -0.4933
     13 C          -3.9023   -5.3095   -0.5976 C.3     1  UNL1        0.0789
     14 H          -4.8431   -4.7312   -0.6703 H       1  UNL1        0.0660
     15 H          -4.0956   -6.2170    0.0152 H       1  UNL1        0.0660
     16 H          -3.5845   -5.6201   -1.6164 H       1  UNL1        0.0660
     17 C           3.5723   -4.5904    0.3817 C.3     1  UNL1        0.0789
     18 H           4.5170   -5.1626    0.4489 H       1  UNL1        0.0660
     19 H           3.3300   -4.1699    1.3813 H       1  UNL1        0.0660
     20 H           3.7158   -3.7586   -0.3417 H       1  UNL1        0.0660
     21 C          -1.0852   -2.3011    0.0015 C.ar    1  UNL1       -0.0384
     22 S           1.5382   -2.3144   -0.0113 S.2     1  UNL1       -0.0876
     23 C          -0.0000   -1.4352   -0.0000 C.ar    1  UNL1        0.0137
     24 H          -2.1304   -1.9672    0.0052 H       1  UNL1        0.0633
     25 H          -0.3622   -9.6122   -0.0325 H       1  UNL1        0.0694
     26 C           0.0000    0.0000    0.0000 C.3     1  UNL1        0.0996
     27 S           0.5799    0.6876    1.5107 S.3     1  UNL1       -0.1318
     28 C           1.5916    1.8950    0.7276 C.3     1  UNL1        0.0544
     29 C           0.5838    0.6958   -1.0647 C.ar    1  UNL1        0.0228
     30 C           1.4753    1.7606   -0.6783 C.ar    1  UNL1        0.0126
     31 C           0.5424    0.6438   -2.4861 C.ar    1  UNL1        0.1496
     32 C           1.3553    1.6128   -3.1069 C.ar    1  UNL1        0.1319
     33 S           2.1546    2.5706   -1.9657 S.2     1  UNL1       -0.0824
     34 C           1.5224    1.8048   -4.5600 C.2     1  UNL1        0.3485
     35 O           0.9247    1.0878   -5.3503 O.2     1  UNL1       -0.2443
     36 O           2.3497    2.7857   -5.0044 O.3     1  UNL1       -0.4640
     37 F          -0.1708   -0.2121   -3.2463 F       1  UNL1       -0.2037
     38 C           2.5881    3.0539   -6.3350 C.3     1  UNL1        0.0820
     39 H           3.2988    3.9000   -6.3703 H       1  UNL1        0.0661
     40 H           1.6553    3.3284   -6.8756 H       1  UNL1        0.0661
     41 H           3.0260    2.1774   -6.8619 H       1  UNL1        0.0661
     42 H           2.1831    2.5998    1.3215 H       1  UNL1        0.0481
@<TRIPOS>BOND
     1    40    38    1
     2    41    38    1
     3    39    38    1
     4    38    36    1
     5    35    34    2
     6    36    34    1
     7    34    32    1
     8    37    31    1
     9    32    31   ar
    10    32    33   ar
    11    31    29   ar
    12    33    30   ar
    13    16    13    1
    14    29    30   ar
    15    29    26    1
    16    30    28    1
    17    14    13    1
    18    13    12    1
    19    13    15    1
    20    20    17    1
    21    11     8    1
    22    11    17    1
    23     5     2    1
    24     6     4   ar
    25     6     7   ar
    26     6     3   ar
    27     4     2   ar
    28     4     8   ar
    29     2     1   ar
    30     1    25    1
    31     1     3   ar
    32     8     9   ar
    33     7    10   ar
    34     7    12    1
    35    22    23   ar
    36    22     9   ar
    37    10    21   ar
    38    10     9   ar
    39    26    23    1
    40    26    27    1
    41    23    21   ar
    42    21    24    1
    43    17    18    1
    44    17    19    1
    45    28    42    1
    46    28    27    1
