@<TRIPOS>MOLECULE
/home/robert/research/aromodel/code/impropers-ptb7in/XYZ_Files/fin_bdt_Phi_10_Theta_120_fin_ftt.xyz
 42 46 0 0 0
SMALL
GASTEIGER

@<TRIPOS>ATOM
      1 C          -0.2887   -8.5160   -0.2091 C.ar    1  UNL1       -0.0230
      2 C           0.6513   -7.6454    0.3228 C.ar    1  UNL1       -0.0433
      3 S          -1.6339   -7.6290   -0.9664 S.2     1  UNL1       -0.0929
      4 C           0.3317   -6.2667    0.1376 C.ar    1  UNL1        0.0355
      5 H           1.5614   -7.9732    0.8410 H       1  UNL1        0.0630
      6 C          -0.9024   -6.0673   -0.5760 C.ar    1  UNL1        0.0651
      7 C          -1.3959   -4.7788   -0.8327 C.ar    1  UNL1        0.1427
      8 C           1.1070   -5.1693    0.6102 C.ar    1  UNL1        0.1427
      9 C           0.6110   -3.8785    0.3570 C.ar    1  UNL1        0.0657
     10 C          -0.6230   -3.6803   -0.3598 C.ar    1  UNL1        0.0361
     11 O           2.2626   -5.5131    1.2440 O.3     1  UNL1       -0.4933
     12 O          -2.5574   -4.4440   -1.4685 O.3     1  UNL1       -0.4933
     13 C          -3.0807   -5.3095   -2.4687 C.3     1  UNL1        0.0789
     14 H          -3.8591   -4.7312   -3.0020 H       1  UNL1        0.0660
     15 H          -3.5545   -6.2170   -2.0347 H       1  UNL1        0.0660
     16 H          -2.2960   -5.6201   -3.1921 H       1  UNL1        0.0660
     17 C           2.9029   -4.5904    2.1168 C.3     1  UNL1        0.0789
     18 H           3.6874   -5.1626    2.6472 H       1  UNL1        0.0660
     19 H           2.1932   -4.1699    2.8613 H       1  UNL1        0.0660
     20 H           3.3888   -3.7586    1.5620 H       1  UNL1        0.0660
     21 C          -0.9406   -2.3011   -0.5413 C.ar    1  UNL1       -0.0350
     22 S           1.3378   -2.3144    0.7593 S.2     1  UNL1       -0.0839
     23 C          -0.0000   -1.4352   -0.0000 C.ar    1  UNL1        0.0280
     24 H          -1.8476   -1.9672   -1.0607 H       1  UNL1        0.0636
     25 H          -0.2974   -9.6122   -0.2092 H       1  UNL1        0.0694
     26 C           0.0000    0.0000    0.0000 C.ar    1  UNL1        0.0369
     27 S           0.1584    0.8854    1.5107 S.2     1  UNL1       -0.0943
     28 C           0.4309    2.4370    0.7276 C.ar    1  UNL1       -0.0093
     29 C           0.1577    0.8944   -1.0647 C.ar    1  UNL1        0.0405
     30 C           0.3974    2.2624   -0.6783 C.ar    1  UNL1        0.0306
     31 C           0.1478    0.8288   -2.4861 C.ar    1  UNL1        0.1532
     32 C           0.3673    2.0744   -3.1069 C.ar    1  UNL1        0.1325
     33 S           0.5806    3.3035   -1.9657 S.2     1  UNL1       -0.0784
     34 C           0.4161    2.3242   -4.5600 C.2     1  UNL1        0.3485
     35 O           0.2569    1.4044   -5.3503 O.2     1  UNL1       -0.2443
     36 O           0.6421    3.5873   -5.0044 O.3     1  UNL1       -0.4640
     37 F          -0.0418   -0.2691   -3.2463 F       1  UNL1       -0.2034
     38 C           0.7144    3.9388   -6.3350 C.3     1  UNL1        0.0820
     39 H           0.9068    5.0269   -6.3703 H       1  UNL1        0.0661
     40 H          -0.2307    3.7101   -6.8756 H       1  UNL1        0.0661
     41 H           1.5319    3.3987   -6.8619 H       1  UNL1        0.0661
     42 H           0.5907    3.3430    1.3215 H       1  UNL1        0.0705
@<TRIPOS>BOND
     1    40    38    1
     2    41    38    1
     3    39    38    1
     4    38    36    1
     5    35    34    2
     6    36    34    1
     7    34    32    1
     8    37    31    1
     9    16    13    1
    10    32    31   ar
    11    32    33   ar
    12    14    13    1
    13    31    29   ar
    14    13    15    1
    15    13    12    1
    16    33    30   ar
    17    12     7    1
    18    29    30   ar
    19    29    26   ar
    20    24    21    1
    21     3     6   ar
    22     3     1   ar
    23     7     6   ar
    24     7    10   ar
    25    30    28   ar
    26     6     4   ar
    27    21    10   ar
    28    21    23   ar
    29    10     9   ar
    30    25     1    1
    31     1     2   ar
    32    23    26    1
    33    23    22   ar
    34    26    27   ar
    35     4     2   ar
    36     4     8   ar
    37     2     5    1
    38     9     8   ar
    39     9    22   ar
    40     8    11    1
    41    28    42    1
    42    28    27   ar
    43    11    17    1
    44    20    17    1
    45    17    18    1
    46    17    19    1
