@<TRIPOS>MOLECULE
/home/robert/research/aromodel/code/impropers-ptb7in/XYZ_Files/fin_bdt_Phi_10_Theta_250_fin_ftt.xyz
 42 46 0 0 0
SMALL
GASTEIGER

@<TRIPOS>ATOM
      1 C           0.3458   -8.5160   -0.0867 C.ar    1  UNL1       -0.0230
      2 C          -0.6659   -7.6454    0.2914 C.ar    1  UNL1       -0.0433
      3 S           1.7906   -7.6290   -0.6305 S.2     1  UNL1       -0.0929
      4 C          -0.3186   -6.2667    0.1657 C.ar    1  UNL1        0.0355
      5 H          -1.6478   -7.9732    0.6555 H       1  UNL1        0.0630
      6 C           1.0212   -6.0673   -0.3210 C.ar    1  UNL1        0.0651
      7 C           1.5352   -4.7788   -0.5341 C.ar    1  UNL1        0.1427
      8 C          -1.1790   -5.1693    0.4558 C.ar    1  UNL1        0.1427
      9 C          -0.6662   -3.8785    0.2386 C.ar    1  UNL1        0.0657
     10 C           0.6760   -3.6803   -0.2460 C.ar    1  UNL1        0.0361
     11 O          -2.4073   -5.5131    0.9336 O.3     1  UNL1       -0.4933
     12 O           2.7688   -4.4440   -1.0152 O.3     1  UNL1       -0.4933
     13 C           3.8714   -5.3095   -0.7731 C.3     1  UNL1        0.0789
     14 H           4.7803   -4.7312   -1.0265 H       1  UNL1        0.0660
     15 H           3.8434   -6.2170   -1.4150 H       1  UNL1        0.0660
     16 H           3.9212   -5.6201    0.2930 H       1  UNL1        0.0660
     17 C          -3.4875   -4.5904    0.8631 C.3     1  UNL1        0.0789
     18 H          -4.3981   -5.1626    1.1231 H       1  UNL1        0.0660
     19 H          -3.6016   -4.1699   -0.1591 H       1  UNL1        0.0660
     20 H          -3.3749   -3.7586    1.5919 H       1  UNL1        0.0660
     21 C           1.0192   -2.3011   -0.3726 C.ar    1  UNL1       -0.0350
     22 S          -1.4416   -2.3144    0.5367 S.2     1  UNL1       -0.0839
     23 C          -0.0000   -1.4352   -0.0000 C.ar    1  UNL1        0.0280
     24 H           2.0002   -1.9672   -0.7335 H       1  UNL1        0.0636
     25 H           0.3514   -9.6122   -0.0933 H       1  UNL1        0.0694
     26 C           0.0000    0.0000    0.0000 C.ar    1  UNL1        0.0369
     27 S           0.1584    0.8854    1.5107 S.2     1  UNL1       -0.0943
     28 C           0.4309    2.4370    0.7276 C.ar    1  UNL1       -0.0093
     29 C           0.1577    0.8944   -1.0647 C.ar    1  UNL1        0.0405
     30 C           0.3974    2.2624   -0.6783 C.ar    1  UNL1        0.0306
     31 C           0.1478    0.8288   -2.4861 C.ar    1  UNL1        0.1532
     32 C           0.3673    2.0744   -3.1069 C.ar    1  UNL1        0.1325
     33 S           0.5806    3.3035   -1.9657 S.2     1  UNL1       -0.0784
     34 C           0.4161    2.3242   -4.5600 C.2     1  UNL1        0.3485
     35 O           0.2569    1.4044   -5.3503 O.2     1  UNL1       -0.2443
     36 O           0.6421    3.5873   -5.0044 O.3     1  UNL1       -0.4640
     37 F          -0.0418   -0.2691   -3.2463 F       1  UNL1       -0.2034
     38 C           0.7144    3.9388   -6.3350 C.3     1  UNL1        0.0820
     39 H           0.9068    5.0269   -6.3703 H       1  UNL1        0.0661
     40 H          -0.2307    3.7101   -6.8756 H       1  UNL1        0.0661
     41 H           1.5319    3.3987   -6.8619 H       1  UNL1        0.0661
     42 H           0.5907    3.3430    1.3215 H       1  UNL1        0.0705
@<TRIPOS>BOND
     1    40    38    1
     2    41    38    1
     3    39    38    1
     4    38    36    1
     5    35    34    2
     6    36    34    1
     7    34    32    1
     8    37    31    1
     9    32    31   ar
    10    32    33   ar
    11    31    29   ar
    12    33    30   ar
    13    15    13    1
    14    29    30   ar
    15    29    26   ar
    16    14    13    1
    17    12    13    1
    18    12     7    1
    19    13    16    1
    20    24    21    1
    21    30    28   ar
    22     3     6   ar
    23     3     1   ar
    24     7     6   ar
    25     7    10   ar
    26    21    10   ar
    27    21    23   ar
    28     6     4   ar
    29    10     9   ar
    30    19    17    1
    31    25     1    1
    32     1     2   ar
    33    23    26    1
    34    23    22   ar
    35    26    27   ar
    36     4     2   ar
    37     4     8   ar
    38     9     8   ar
    39     9    22   ar
    40     2     5    1
    41     8    11    1
    42    28    42    1
    43    28    27   ar
    44    17    11    1
    45    17    18    1
    46    17    20    1
